TITL LiN2-230326-160120-ac1474 -0.0032 181.078873 -4.53798786E+003 0 0  18 (P-6m2) n - 1
REM
REM Run started: Mon, 27 Mar 2023 19:39:26 +0000 in /home/bonan/nas/work/m3gnet/lin2/refine-run1
REM CASTEP 22.11| from code version b807d1bba+ Castep221_branch Wed Sep 14 11:18:35 2022 +0100
REM Functional Perdew Burke Ernzerhof Relativity Koelling-Harmon Dispersion off
REM Cut-off 800.0000 eV Grid scale 2.0000 Gmax 43.4715 1/A FBSC none
REM MP grid 7 2 4 Offset 0.000 0.000 0.000 No. kpts 8 Spacing 0.05
REM Total runtime: 1846.35 s
REM Overall efficiency: 92 %
REM
REM LiN2.cell (d2ef6ed2fcbb8712920a7d83bb41834a)
REM ## AIRSS Version 0.9.3 July 2022 commit v0.9.3-8-ga1e635fa32177e30cc
REM
REM
REM cmdline: crud.pl -mpinp 8 
REM
REM
REM N 2|1.1|14|16|18|20:21(qc=7)
REM Li 1|1.0|14|16|18|10U:20(qc=7)
REM 
CELL 1.54180    2.94087   12.07782    5.09803   90.00000   90.00000   90.00000
LATT -1
SFAC Li N  
Li     1 -0.5018121854677  0.1651337651970  0.1311413211042 1.0
Li     1  0.5018121854677 -0.1651337651970  0.1311413211042 1.0
Li     1  0.0018121854677  0.1651337651970 -0.3688586788958 1.0
Li     1 -0.0018121854677 -0.1651337651970 -0.3688586788958 1.0
Li     1  0.0000000000000 -0.5000000000000 -0.0308903178690 1.0
Li     1  0.5000000000000 -0.5000000000000 -0.5308903178690 1.0
N      2  0.4999047444403  0.0482861966196 -0.2045690738770 1.0
N      2 -0.4999047444403 -0.0482861966196 -0.2045690738770 1.0
N      2  0.0000952555597  0.0482861966196  0.2954309261230 1.0
N      2 -0.0000952555597 -0.0482861966196  0.2954309261230 1.0
N      2 -0.0011843067410  0.2850798778957  0.3004449331092 1.0
N      2  0.0011843067410 -0.2850798778957  0.3004449331092 1.0
N      2 -0.4988156932590  0.2850798778957 -0.1995550668908 1.0
N      2  0.4988156932590 -0.2850798778957 -0.1995550668908 1.0
N      2 -0.0012630094753  0.3814930273981  0.3004194785980 1.0
N      2  0.0012630094753 -0.3814930273981  0.3004194785980 1.0
N      2  0.5012630094753  0.3814930273981 -0.1995805214020 1.0
N      2 -0.5012630094753 -0.3814930273981 -0.1995805214020 1.0
END
