TITL LiN2-230326-190339-c652ef 0.0278 130.624766 -3.02512127E+003 0 0  12 (Cmmm) n - 1
REM
REM Run started: Mon, 27 Mar 2023 19:52:42 +0000 in /home/bonan/nas/work/m3gnet/lin2/refine-run1
REM CASTEP 22.11| from code version b807d1bba+ Castep221_branch Wed Sep 14 11:18:35 2022 +0100
REM Functional Perdew Burke Ernzerhof Relativity Koelling-Harmon Dispersion off
REM Cut-off 800.0000 eV Grid scale 2.0000 Gmax 43.4715 1/A FBSC none
REM MP grid 8 4 3 Offset 0.000 0.000 0.000 No. kpts 16 Spacing 0.05
REM Total runtime: 1807.35 s
REM Overall efficiency: 93 %
REM
REM LiN2.cell (d2ef6ed2fcbb8712920a7d83bb41834a)
REM ## AIRSS Version 0.9.3 July 2022 commit v0.9.3-8-ga1e635fa32177e30cc
REM
REM
REM cmdline: crud.pl -mpinp 16 
REM
REM
REM N 2|1.1|14|16|18|20:21(qc=7)
REM Li 1|1.0|14|16|18|10U:20(qc=7)
REM 
CELL 1.54180    2.86774    5.46991    8.32734   90.00000   90.00000   90.00000
LATT -1
SFAC Li N  
Li     1 -0.2499758962287  0.2473184857739  0.2752508526655 1.0
Li     1  0.2499758962287 -0.2473184857739 -0.2247491473345 1.0
Li     1  0.2500241037713 -0.2473184857739  0.2752508526655 1.0
Li     1 -0.2500241037713  0.2473184857739 -0.2247491473345 1.0
N      2 -0.7503666051099  0.2486319714896 -0.0441284234530 1.0
N      2  0.7503666051099 -0.2486319714896  0.4558715765470 1.0
N      2 -0.2503666051099 -0.2486319714896 -0.0441284234530 1.0
N      2  0.2503666051099  0.2486319714896  0.4558715765470 1.0
N      2  0.2503976574239  0.2487574076340  0.0954780707875 1.0
N      2 -0.2503976574239 -0.2487574076340 -0.4045219292125 1.0
N      2 -0.2496023425761 -0.2487574076340  0.0954780707875 1.0
N      2  0.2496023425761  0.2487574076340 -0.4045219292125 1.0
END
