TITL LiN2-230326-190416-6aa4b7 0.0184 65.230733 -1.51255944E+003 0 0  6 (Cmmm) n - 1
REM
REM Run started: Mon, 27 Mar 2023 19:36:00 +0000 in /home/bonan/nas/work/m3gnet/lin2/refine-run1
REM CASTEP 22.11| from code version b807d1bba+ Castep221_branch Wed Sep 14 11:18:35 2022 +0100
REM Functional Perdew Burke Ernzerhof Relativity Koelling-Harmon Dispersion off
REM Cut-off 800.0000 eV Grid scale 2.0000 Gmax 43.4715 1/A FBSC none
REM MP grid 8 5 4 Offset 0.000 0.000 0.000 No. kpts 48 Spacing 0.05
REM Total runtime: 378.14 s
REM Overall efficiency: 92 %
REM
REM LiN2.cell (d2ef6ed2fcbb8712920a7d83bb41834a)
REM ## AIRSS Version 0.9.3 July 2022 commit v0.9.3-8-ga1e635fa32177e30cc
REM
REM
REM cmdline: crud.pl -mpinp 16 
REM
REM
REM N 2|1.1|14|16|18|20:21(qc=7)
REM Li 1|1.0|14|16|18|10U:20(qc=7)
REM 
CELL 1.54180    2.87012    4.16334    5.45897   90.00000   90.08909   90.00000
LATT -1
SFAC Li N  
Li     1  0.2503924885209 -0.0759761510839 -0.2519788136940 1.0
Li     1 -0.2503924885209 -0.0759761510839  0.2519788136940 1.0
N      2 -0.2493018744248  0.2843805770792 -0.2507383983427 1.0
N      2  0.2493018744248  0.2843805770792  0.2507383983427 1.0
N      2  0.2492776168775 -0.4363409259952  0.2507922094799 1.0
N      2 -0.2492776168775 -0.4363409259952 -0.2507922094799 1.0
END
