TITL LiN2-230326-183513-f33db6 -0.0134 60.230889 -1.51266766E+003 0 0  6 (P-6m2) n - 1
REM
REM Run started: Mon, 27 Mar 2023 19:54:24 +0000 in /home/bonan/nas/work/m3gnet/lin2/refine-run1
REM CASTEP 22.11| from code version b807d1bba+ Castep221_branch Wed Sep 14 11:18:35 2022 +0100
REM Functional Perdew Burke Ernzerhof Relativity Koelling-Harmon Dispersion off
REM Cut-off 800.0000 eV Grid scale 2.0000 Gmax 43.4715 1/A FBSC none
REM MP grid 8 4 5 Offset 0.000 0.000 0.000 No. kpts 48 Spacing 0.05
REM Total runtime: 666.22 s
REM Overall efficiency: 89 %
REM
REM LiN2.cell (d2ef6ed2fcbb8712920a7d83bb41834a)
REM ## AIRSS Version 0.9.3 July 2022 commit v0.9.3-8-ga1e635fa32177e30cc
REM
REM
REM cmdline: crud.pl -mpinp 16 
REM
REM
REM N 2|1.1|14|16|18|20:21(qc=7)
REM Li 1|1.0|14|16|18|10U:20(qc=7)
REM 
CELL 1.54180    2.93738    5.09064    4.02798   90.00000   90.00000   90.03592
LATT -1
SFAC Li N  
Li     1  0.5090443212718  0.3331064561205 -0.0001219618530 1.0
Li     1  0.0090443212718 -0.1668935438795  0.0001219618530 1.0
N      2  0.5138844263772 -0.0033476492019 -0.3552065173231 1.0
N      2  0.0138844263772 -0.5033476492019  0.3552065173231 1.0
N      2  0.0146392523510  0.4969715930814 -0.3555634809929 1.0
N      2 -0.4853607476490 -0.0030284069186  0.3555634809929 1.0
END
