TITL 2LFP-201123-232124-9e6bb2 -0.0413 140.325845 -6.06637242E+003 6.00570 7.58399 14 (Cm) n - 1
REM
REM Run started: Tue, 24 Nov 2020 00:52:42 +0000 in /lustre/scratch/uccabz1/launch_tmp/launcher_2020-11-23-23-21-20-818019
REM CASTEP 20.1 from code version af48c487+ pr-geom-scf-spinfix Tue Jun 2 15:39:59 2020 +0100
REM Functional Perdew Burke Ernzerhof Relativity Koelling-Harmon Dispersion off
REM Cut-off 300.0000 eV Grid scale 1.7500 Gmax 15.5288 1/A FBSC none
REM MP grid 4 4 4 Offset 0.000 0.000 0.000 No. kpts 20 Spacing 0.07
REM Total runtime: 5995.83 s
REM Overall efficiency: 86.2857 %
REM
REM 2LFP.cell (a815d5d25b9f25a0a111bfe3624e67be)
REM
REM compiler GCC version 4.9.2
REM options -cpp -iprefix /lustre/shared/ucl/apps/gcc/4.9.2/bin/../lib/gcc/x86_64-unknown-linux-gnu/4.9.2/ -mtune=corei7 -march=x86-64 -g -Og
REM COMMAND_LINE
REM seed -546819640 -339374736 -2011683434 37230488 -261337015 -640828254 295078719 -554994734 1000461385 2037113529 1291513382 1372351209
REM
REM P 3|1.8|4|5|5|30:31:32(qc=5)
REM O 2|1.5|12|13|15|20:21(qc=5)
REM Li 1|1.3|8|9|10|10U:20(qc=5)
REM Fe 3|2.2|2.0|1.0|8|9|10|40:41:32(qc=5)
REM Fe d:4.0 
REM
CELL 1.54180    5.61190    5.94238    5.94238  109.63266  112.32892  112.32892
LATT -1
SFAC Li O  P  Fe 
Li     1 -0.1953570000000 -0.2047260000000 -0.2047260000000 1.0  -0.03
Li     1  0.2641160000000  0.5935010000000  0.5935010000000 1.0  -0.00
O      2 -0.0539960000000 -0.5411450000000  0.2109790000000 1.0  -0.11
O      2  0.1449950000000 -0.0677350000000  0.1708680000000 1.0  -0.07
O      2  0.6056010000000 -0.3926390000000  0.3814750000000 1.0  -0.14
O      2  0.5340260000000 -0.2238620000000  0.0053460000000 1.0  -0.09
O      2 -0.0539960000000  0.2109790000000 -0.5411450000000 1.0  -0.11
O      2  0.1449950000000  0.1708680000000 -0.0677350000000 1.0  -0.07
O      2  0.6056010000000  0.3814750000000 -0.3926390000000 1.0  -0.14
O      2  0.5340260000000  0.0053460000000 -0.2238620000000 1.0  -0.09
P      3  0.4079150000000  0.2474690000000  0.2474690000000 1.0   0.03
P      3  0.6783550000000  0.1231740000000  0.1231740000000 1.0   0.03
Fe     4 -0.1106950000000  0.3013270000000 -0.2029370000000 1.0   3.39
Fe     4 -0.1106950000000 -0.2029370000000  0.3013270000000 1.0   3.39
END
