TITL 2LFP-201123-233244-927969 -0.0170 144.626011 -6.06665223E+003 7.99997 8.22265 14 (Cmc21) n - 1
REM
REM Run started: Mon, 23 Nov 2020 23:54:10 +0000 in /lustre/scratch/uccabz1/launch_tmp/launcher_2020-11-23-23-32-41-823498
REM CASTEP 20.1 from code version af48c487+ pr-geom-scf-spinfix Tue Jun 2 15:39:59 2020 +0100
REM Functional Perdew Burke Ernzerhof Relativity Koelling-Harmon Dispersion off
REM Cut-off 300.0000 eV Grid scale 1.7500 Gmax 15.5288 1/A FBSC none
REM MP grid 4 4 3 Offset 0.000 0.000 0.000 No. kpts 12 Spacing 0.07
REM Total runtime: 1525.49 s
REM Overall efficiency: 71.3333 %
REM
REM 2LFP.cell (a815d5d25b9f25a0a111bfe3624e67be)
REM
REM compiler GCC version 4.9.2
REM options -cpp -iprefix /lustre/shared/ucl/apps/gcc/4.9.2/bin/../lib/gcc/x86_64-unknown-linux-gnu/4.9.2/ -mtune=corei7 -march=x86-64 -g -Og
REM COMMAND_LINE
REM seed -328944290 254089357 -854021242 1527182350 984633334 1835976844 -1594780780 396917087 77965560 1249171326 -1492616696 229988528
REM
REM P 3|1.8|4|5|5|30:31:32(qc=5)
REM O 2|1.5|12|13|15|20:21(qc=5)
REM Li 1|1.3|8|9|10|10U:20(qc=5)
REM Fe 3|2.2|2.0|1.0|8|9|10|40:41:32(qc=5)
REM Fe d:4.0 
REM
CELL 1.54180    5.40405    5.40405    5.94308   90.00000   90.00000  123.56195
LATT -1
SFAC Li O  P  Fe 
Li     1  0.4702820000000 -0.4702820000000 -0.1816220000000 1.0  -0.03
Li     1 -0.4702820000000  0.4702820000000  0.3183780000000 1.0  -0.03
O      2 -0.2320600000000 -0.2162500000000 -0.4149800000000 1.0   0.07
O      2  0.0022470000000 -0.5496770000000 -0.2391770000000 1.0   0.06
O      2  0.2320600000000  0.2162500000000  0.0850200000000 1.0   0.07
O      2 -0.0022470000000  0.5496770000000  0.2608230000000 1.0   0.06
O      2 -0.2162500000000 -0.2320600000000  0.0850200000000 1.0   0.07
O      2 -0.5496770000000  0.0022470000000  0.2608230000000 1.0   0.06
O      2  0.2162500000000  0.2320600000000 -0.4149800000000 1.0   0.07
O      2  0.5496770000000 -0.0022470000000 -0.2391770000000 1.0   0.06
P      3  0.1163010000000 -0.1163010000000  0.1708030000000 1.0  -0.03
P      3 -0.1163010000000  0.1163010000000 -0.3291970000000 1.0  -0.03
Fe     4 -0.1751930000000  0.1751930000000  0.0697920000000 1.0   3.79
Fe     4  0.1751930000000 -0.1751930000000 -0.4302080000000 1.0   3.79
END
