TITL 2LFP-201124-025524-2b6e9a -0.0861 165.055394 -6.06800211E+003 8.00000 8.69919 14 (Cm) n - 1
REM
REM Run started: Tue, 24 Nov 2020 04:42:08 +0000 in /lustre/scratch/uccabz1/launch_tmp/launcher_2020-11-24-02-55-20-659614
REM CASTEP 20.1 from code version af48c487+ pr-geom-scf-spinfix Tue Jun 2 15:39:59 2020 +0100
REM Functional Perdew Burke Ernzerhof Relativity Koelling-Harmon Dispersion off
REM Cut-off 300.0000 eV Grid scale 1.7500 Gmax 15.5288 1/A FBSC none
REM MP grid 4 3 3 Offset 0.000 0.000 0.000 No. kpts 18 Spacing 0.07
REM Total runtime: 6781.02 s
REM Overall efficiency: 91.4444 %
REM
REM 2LFP.cell (a815d5d25b9f25a0a111bfe3624e67be)
REM
REM compiler GCC version 4.9.2
REM options -cpp -iprefix /lustre/shared/ucl/apps/gcc/4.9.2/bin/../lib/gcc/x86_64-unknown-linux-gnu/4.9.2/ -mtune=corei7 -march=x86-64 -g -Og
REM COMMAND_LINE
REM seed 1967922467 713118410 -504303856 -1693686806 -1225862817 153954689 1446112327 -695921177 357985819 13498606 -2075229943 -131811714
REM
REM P 3|1.8|4|5|5|30:31:32(qc=5)
REM O 2|1.5|12|13|15|20:21(qc=5)
REM Li 1|1.3|8|9|10|10U:20(qc=5)
REM Fe 3|2.2|2.0|1.0|8|9|10|40:41:32(qc=5)
REM Fe d:4.0 
REM
CELL 1.54180    5.34768    6.44176    6.33664  120.00350  114.33280   91.11921
LATT -1
SFAC Li O  P  Fe 
Li     1  0.0956460000000  0.2516410000000  0.0000000000000 1.0  -0.00
Li     1  0.0977110000000 -0.3110130000000  0.0000000000000 1.0  -0.02
O      2 -0.5762400000000 -0.0126080000000 -0.3334650000000 1.0   0.02
O      2 -0.6153890000000 -0.4382110000000 -0.4155470000000 1.0   0.02
O      2 -0.9533390000000 -0.1835010000000 -0.2523900000000 1.0   0.01
O      2 -0.2427750000000  0.3208580000000  0.3334650000000 1.0   0.02
O      2 -0.1998420000000 -0.0226640000000  0.4155470000000 1.0   0.02
O      2 -0.7009490000000  0.0688890000000  0.2523900000000 1.0   0.01
O      2  0.3399590000000  0.4810040000000  0.0000000000000 1.0   0.30
O      2 -0.1518500000000 -0.5268000000000  0.0000000000000 1.0   0.27
P      3 -0.7615530000000 -0.2335470000000 -0.3892340000000 1.0  -0.09
P      3 -0.3723190000000  0.1556870000000  0.3892340000000 1.0  -0.09
Fe     4  0.4479640000000  0.3214460000000  0.7090500000000 1.0   3.76
Fe     4 -0.2610860000000 -0.3876040000000 -0.7090500000000 1.0   3.76
END
