TITL 2LFP-201124-001429-fc55c7 -0.0076 143.161454 -6.06496075E+003 8.01052 8.18284 14 (C2/m) n - 1
REM
REM Run started: Tue, 24 Nov 2020 00:42:28 +0000 in /lustre/scratch/uccabz1/launch_tmp/launcher_2020-11-24-00-14-25-943648
REM CASTEP 20.1 from code version af48c487+ pr-geom-scf-spinfix Tue Jun 2 15:39:59 2020 +0100
REM Functional Perdew Burke Ernzerhof Relativity Koelling-Harmon Dispersion off
REM Cut-off 300.0000 eV Grid scale 1.7500 Gmax 15.5288 1/A FBSC none
REM MP grid 4 3 3 Offset 0.000 0.000 0.000 No. kpts 18 Spacing 0.07
REM Total runtime: 1793.98 s
REM Overall efficiency: 90.1667 %
REM
REM 2LFP.cell (a815d5d25b9f25a0a111bfe3624e67be)
REM
REM compiler GCC version 4.9.2
REM options -cpp -iprefix /lustre/shared/ucl/apps/gcc/4.9.2/bin/../lib/gcc/x86_64-unknown-linux-gnu/4.9.2/ -mtune=corei7 -march=x86-64 -g -Og
REM COMMAND_LINE
REM seed 1830573513 -1808499356 -1227469077 -140800852 -1637159520 1255183477 1767330828 -523294240 1680155362 1195194721 536176162 111364660
REM
REM P 3|1.8|4|5|5|30:31:32(qc=5)
REM O 2|1.5|12|13|15|20:21(qc=5)
REM Li 1|1.3|8|9|10|10U:20(qc=5)
REM Fe 3|2.2|2.0|1.0|8|9|10|40:41:32(qc=5)
REM Fe d:4.0 
REM
CELL 1.54180    5.01490    6.08204    5.15334   88.76513   90.00000  114.34763
LATT -1
SFAC Li O  P  Fe 
Li     1  0.2266670000000  0.4533340000000  0.2928170000000 1.0  -0.05
Li     1 -0.2266670000000 -0.4533340000000 -0.2928170000000 1.0  -0.05
O      2 -0.1460210000000  0.2471000000000  0.0991080000000 1.0   0.06
O      2 -0.1452690000000  0.2602540000000  0.5408280000000 1.0   0.06
O      2 -0.3931210000000 -0.2471000000000 -0.0991080000000 1.0   0.06
O      2 -0.4055230000000 -0.2602540000000 -0.5408280000000 1.0   0.06
O      2  0.1460210000000 -0.2471000000000 -0.0991080000000 1.0   0.06
O      2  0.1452690000000 -0.2602540000000 -0.5408280000000 1.0   0.06
O      2  0.3931210000000  0.2471000000000  0.0991080000000 1.0   0.06
O      2  0.4055230000000  0.2602540000000  0.5408280000000 1.0   0.06
P      3 -0.3790110000000  0.2419780000000  0.3147650000000 1.0   0.04
P      3  0.3790110000000 -0.2419780000000 -0.3147650000000 1.0   0.04
Fe     4 -0.1008000000000 -0.2016000000000  0.1866330000000 1.0   3.77
Fe     4  0.1008000000000  0.2016000000000 -0.1866330000000 1.0   3.77
END
