TITL 2LFP-201123-232416-55f954 0.0336 161.723208 -6.07233654E+003 8.00000 8.13237 14 (P-1) n - 1
REM
REM Run started: Tue, 24 Nov 2020 00:21:38 +0000 in /lustre/scratch/uccabz1/launch_tmp/launcher_2020-11-23-23-24-13-315801
REM CASTEP 20.1 from code version af48c487+ pr-geom-scf-spinfix Tue Jun 2 15:39:59 2020 +0100
REM Functional Perdew Burke Ernzerhof Relativity Koelling-Harmon Dispersion off
REM Cut-off 300.0000 eV Grid scale 1.7500 Gmax 15.5288 1/A FBSC none
REM MP grid 4 3 3 Offset 0.000 0.000 0.000 No. kpts 18 Spacing 0.07
REM Total runtime: 3756.66 s
REM Overall efficiency: 92.3333 %
REM
REM 2LFP.cell (a815d5d25b9f25a0a111bfe3624e67be)
REM
REM compiler GCC version 4.9.2
REM options -cpp -iprefix /lustre/shared/ucl/apps/gcc/4.9.2/bin/../lib/gcc/x86_64-unknown-linux-gnu/4.9.2/ -mtune=corei7 -march=x86-64 -g -Og
REM COMMAND_LINE
REM seed 1474163158 -1119767822 -732265927 -523294240 423331498 835464460 -1549992240 170411948 1239680108 648013290 1308327874 856549973
REM
REM P 3|1.8|4|5|5|30:31:32(qc=5)
REM O 2|1.5|12|13|15|20:21(qc=5)
REM Li 1|1.3|8|9|10|10U:20(qc=5)
REM Fe 3|2.2|2.0|1.0|8|9|10|40:41:32(qc=5)
REM Fe d:4.0 
REM
CELL 1.54180    5.09678    6.60434    6.19789   77.56900   89.07812   53.33125
LATT -1
SFAC Li O  P  Fe 
Li     1  0.8006200000000  0.3658380000000  0.2694320000000 1.0  -0.05
Li     1 -0.8006200000000 -0.3658380000000 -0.2694320000000 1.0  -0.05
O      2 -0.2505030000000  0.2298190000000 -0.4290950000000 1.0   0.04
O      2 -0.1980640000000 -0.1281870000000 -0.1367410000000 1.0   0.04
O      2 -0.7705310000000  0.3357710000000 -0.2896000000000 1.0   0.03
O      2  0.2505030000000 -0.2298190000000  0.4290950000000 1.0   0.04
O      2  0.1980640000000  0.1281870000000  0.1367410000000 1.0   0.04
O      2  0.7705310000000 -0.3357710000000  0.2896000000000 1.0   0.03
O      2 -0.5000000000000 -0.5000000000000  0.0000000000000 1.0   0.19
O      2 -0.5000000000000  0.0000000000000 -0.5000000000000 1.0   0.01
P      3 -0.4262480000000  0.1133730000000 -0.3287080000000 1.0   0.01
P      3  0.4262480000000 -0.1133730000000  0.3287080000000 1.0   0.01
Fe     4  0.1244840000000 -0.3298470000000  0.1558970000000 1.0   3.83
Fe     4 -0.1244840000000  0.3298470000000 -0.1558970000000 1.0   3.83
END
