TITL 2LFP-201124-022451-f11eca -0.0039 167.556115 -6.07212408E+003 8.00000 8.13007 14 (Cm) n - 1
REM
REM Run started: Tue, 24 Nov 2020 04:21:08 +0000 in /lustre/scratch/uccabz1/launch_tmp/launcher_2020-11-24-02-24-49-342837
REM CASTEP 20.1 from code version af48c487+ pr-geom-scf-spinfix Tue Jun 2 15:39:59 2020 +0100
REM Functional Perdew Burke Ernzerhof Relativity Koelling-Harmon Dispersion off
REM Cut-off 300.0000 eV Grid scale 1.7500 Gmax 15.5288 1/A FBSC none
REM MP grid 4 4 4 Offset 0.000 0.000 0.000 No. kpts 20 Spacing 0.07
REM Total runtime: 7844.04 s
REM Overall efficiency: 80.4167 %
REM
REM 2LFP.cell (a815d5d25b9f25a0a111bfe3624e67be)
REM
REM compiler GCC version 4.9.2
REM options -cpp -iprefix /lustre/shared/ucl/apps/gcc/4.9.2/bin/../lib/gcc/x86_64-unknown-linux-gnu/4.9.2/ -mtune=corei7 -march=x86-64 -g -Og
REM COMMAND_LINE
REM seed -655405726 1906089643 -731035221 -103556706 1333350618 1018030726 -1653569389 1619225968 -120472155 383812151 -1700182188 -1110264517
REM
REM P 3|1.8|4|5|5|30:31:32(qc=5)
REM O 2|1.5|12|13|15|20:21(qc=5)
REM Li 1|1.3|8|9|10|10U:20(qc=5)
REM Fe 3|2.2|2.0|1.0|8|9|10|40:41:32(qc=5)
REM Fe d:4.0 
REM
CELL 1.54180    6.82281    6.82281    6.14181  115.37750  115.37750  112.61753
LATT -1
SFAC Li O  P  Fe 
Li     1 -0.1912890000000  0.0857460000000  0.0021000000000 1.0  -0.04
Li     1  0.0857460000000 -0.1912890000000  0.0021000000000 1.0  -0.04
O      2 -0.0111550000000 -0.7688160000000 -0.5556940000000 1.0   0.03
O      2  0.3450990000000 -0.2232430000000  0.0307150000000 1.0   0.01
O      2  0.4208630000000 -0.3193270000000 -0.3667280000000 1.0   0.05
O      2 -0.7688160000000 -0.0111550000000 -0.5556940000000 1.0   0.03
O      2 -0.2232430000000  0.3450990000000  0.0307150000000 1.0   0.01
O      2 -0.3193270000000  0.4208630000000 -0.3667280000000 1.0   0.05
O      2  0.5324160000000  0.5324160000000 -0.0439620000000 1.0   0.01
O      2  0.0345420000000  0.0345420000000 -0.1153340000000 1.0   0.16
P      3  0.2971840000000 -0.4409710000000 -0.2503230000000 1.0   0.00
P      3 -0.4409710000000  0.2971840000000 -0.2503230000000 1.0   0.00
Fe     4 -0.0707580000000 -0.0707580000000 -0.5130140000000 1.0   3.86
Fe     4 -0.5714510000000 -0.5714510000000  0.3146930000000 1.0   3.86
END
