TITL 2LFP-201124-041221-277c0e 0.0604 148.753561 -6.07435886E+003 8.00000 8.11819 14 (P21212) n - 1
REM
REM Run started: Tue, 24 Nov 2020 04:41:13 +0000 in /lustre/scratch/uccabz1/launch_tmp/launcher_2020-11-24-04-12-19-806852
REM CASTEP 20.1 from code version af48c487+ pr-geom-scf-spinfix Tue Jun 2 15:39:59 2020 +0100
REM Functional Perdew Burke Ernzerhof Relativity Koelling-Harmon Dispersion off
REM Cut-off 300.0000 eV Grid scale 1.7500 Gmax 15.5288 1/A FBSC none
REM MP grid 4 4 2 Offset 0.000 0.000 0.000 No. kpts 4 Spacing 0.07
REM Total runtime: 1802.58 s
REM Overall efficiency: 86.8571 %
REM
REM 2LFP.cell (a815d5d25b9f25a0a111bfe3624e67be)
REM
REM compiler GCC version 4.9.2
REM options -cpp -iprefix /lustre/shared/ucl/apps/gcc/4.9.2/bin/../lib/gcc/x86_64-unknown-linux-gnu/4.9.2/ -mtune=corei7 -march=x86-64 -g -Og
REM COMMAND_LINE
REM seed 1716616487 1312160072 872543841 -154932103 679051510 52785772 -875983268 1879976853 -1004671515 -340116744 1335260656 -43536527
REM
REM P 3|1.8|4|5|5|30:31:32(qc=5)
REM O 2|1.5|12|13|15|20:21(qc=5)
REM Li 1|1.3|8|9|10|10U:20(qc=5)
REM Fe 3|2.2|2.0|1.0|8|9|10|40:41:32(qc=5)
REM Fe d:4.0 
REM
CELL 1.54180    4.43258    4.48148    7.48841   90.00000   90.00000   90.00000
LATT -1
SFAC Li O  P  Fe 
Li     1  0.0000000000000  0.0000000000000 -0.0104000000000 1.0  -0.03
Li     1 -0.5000000000000 -0.5000000000000  0.0104000000000 1.0  -0.03
O      2  0.2895530000000  0.2024200000000  0.1408640000000 1.0   0.02
O      2  0.1910550000000  0.3036100000000 -0.3828770000000 1.0   0.05
O      2 -0.2895530000000 -0.2024200000000  0.1408640000000 1.0   0.02
O      2 -0.1910550000000 -0.3036100000000 -0.3828770000000 1.0   0.05
O      2 -0.2104470000000  0.2975800000000 -0.1408640000000 1.0   0.02
O      2 -0.3089450000000  0.1963900000000  0.3828770000000 1.0   0.05
O      2  0.2104470000000 -0.2975800000000 -0.1408640000000 1.0   0.02
O      2  0.3089450000000 -0.1963900000000  0.3828770000000 1.0   0.05
P      3  0.0000000000000 -0.5000000000000 -0.2557340000000 1.0   0.01
P      3  0.5000000000000  0.0000000000000  0.2557340000000 1.0   0.01
Fe     4  0.5000000000000  0.0000000000000 -0.3518130000000 1.0   3.87
Fe     4  0.0000000000000 -0.5000000000000  0.3518130000000 1.0   3.87
END
