TITL 2LFP-201123-214405-c811d2 0.0381 165.145606 -6.07440963E+003 8.00000 8.08024 14 (C2) n - 1
REM
REM Run started: Mon, 23 Nov 2020 22:24:05 +0000 in /lustre/scratch/uccabz1/launch_tmp/launcher_2020-11-23-21-44-03-752872
REM CASTEP 20.1 from code version af48c487+ pr-geom-scf-spinfix Tue Jun 2 15:39:59 2020 +0100
REM Functional Perdew Burke Ernzerhof Relativity Koelling-Harmon Dispersion off
REM Cut-off 300.0000 eV Grid scale 1.7500 Gmax 15.5288 1/A FBSC none
REM MP grid 3 3 3 Offset 0.000 0.000 0.000 No. kpts 10 Spacing 0.07
REM Total runtime: 2703.35 s
REM Overall efficiency: 69.5714 %
REM
REM 2LFP.cell (a815d5d25b9f25a0a111bfe3624e67be)
REM
REM compiler GCC version 4.9.2
REM options -cpp -iprefix /lustre/shared/ucl/apps/gcc/4.9.2/bin/../lib/gcc/x86_64-unknown-linux-gnu/4.9.2/ -mtune=corei7 -march=x86-64 -g -Og
REM COMMAND_LINE
REM seed -1917062155 -465615927 -833693177 1745052254 -815447389 -553526091 1067845702 -916270976 487267778 1965236369 1716472153 815433530
REM
REM P 3|1.8|4|5|5|30:31:32(qc=5)
REM O 2|1.5|12|13|15|20:21(qc=5)
REM Li 1|1.3|8|9|10|10U:20(qc=5)
REM Fe 3|2.2|2.0|1.0|8|9|10|40:41:32(qc=5)
REM Fe d:4.0 
REM
CELL 1.54180    4.93609    4.93609    6.78473   89.68136   89.68136   87.48611
LATT -1
SFAC Li O  P  Fe 
Li     1  0.2315310000000 -0.2315310000000  0.0000000000000 1.0  -0.03
Li     1 -0.2812130000000  0.2812130000000 -0.5000000000000 1.0  -0.04
O      2  0.1434300000000 -0.0139860000000 -0.2380240000000 1.0   0.04
O      2  0.0786570000000  0.4193540000000 -0.4324500000000 1.0   0.04
O      2  0.1006930000000  0.4236310000000 -0.0534570000000 1.0   0.04
O      2  0.5243370000000  0.3360700000000 -0.2543380000000 1.0   0.04
O      2  0.0139860000000 -0.1434300000000  0.2380240000000 1.0   0.04
O      2 -0.4193540000000 -0.0786570000000  0.4324500000000 1.0   0.04
O      2 -0.4236310000000 -0.1006930000000  0.0534570000000 1.0   0.04
O      2 -0.3360700000000 -0.5243370000000  0.2543380000000 1.0   0.04
P      3  0.2156050000000  0.2913170000000 -0.2458410000000 1.0   0.01
P      3 -0.2913170000000 -0.2156050000000  0.2458410000000 1.0   0.01
Fe     4  0.2004550000000 -0.2004550000000  0.5000000000000 1.0   3.87
Fe     4 -0.2594770000000  0.2594770000000  0.0000000000000 1.0   3.87
END
