TITL 2LFP-201124-052409-a688f9 -0.0030 167.906688 -6.07399291E+003 8.00000 8.13225 14 (C2) n - 1
REM
REM Run started: Tue, 24 Nov 2020 05:49:36 +0000 in /lustre/scratch/uccabz1/launch_tmp/launcher_2020-11-24-05-24-03-621945
REM CASTEP 20.1 from code version af48c487+ pr-geom-scf-spinfix Tue Jun 2 15:39:59 2020 +0100
REM Functional Perdew Burke Ernzerhof Relativity Koelling-Harmon Dispersion off
REM Cut-off 300.0000 eV Grid scale 1.7500 Gmax 15.5288 1/A FBSC none
REM MP grid 4 4 3 Offset 0.000 0.000 0.000 No. kpts 16 Spacing 0.07
REM Total runtime: 1670.33 s
REM Overall efficiency: 91.3333 %
REM
REM 2LFP.cell (a815d5d25b9f25a0a111bfe3624e67be)
REM
REM compiler GCC version 4.9.2
REM options -cpp -iprefix /lustre/shared/ucl/apps/gcc/4.9.2/bin/../lib/gcc/x86_64-unknown-linux-gnu/4.9.2/ -mtune=corei7 -march=x86-64 -g -Og
REM COMMAND_LINE
REM seed -91400213 -1679741886 -1346391556 936832484 -1585443984 -1910200410 1286316149 1567784227 -227698866 549029621 -1771324358 261613175
REM
REM P 3|1.8|4|5|5|30:31:32(qc=5)
REM O 2|1.5|12|13|15|20:21(qc=5)
REM Li 1|1.3|8|9|10|10U:20(qc=5)
REM Fe 3|2.2|2.0|1.0|8|9|10|40:41:32(qc=5)
REM Fe d:4.0 
REM
CELL 1.54180    5.10890    5.10890    7.31375   70.86926   70.86926   74.97130
LATT -1
SFAC Li O  P  Fe 
Li     1 -0.1990030000000 -0.3100120000000  0.0056600000000 1.0  -0.02
Li     1  0.3100120000000  0.1990030000000 -0.0056600000000 1.0  -0.02
O      2 -0.0070330000000 -0.0107320000000 -0.1988760000000 1.0   0.06
O      2 -0.4044910000000  0.4002290000000 -0.1997580000000 1.0   0.05
O      2  0.0647060000000  0.4529220000000 -0.1826610000000 1.0   0.04
O      2  0.0129210000000  0.4066280000000 -0.5078000000000 1.0   0.06
O      2  0.0107320000000  0.0070330000000  0.1988760000000 1.0   0.06
O      2 -0.4002290000000  0.4044910000000  0.1997580000000 1.0   0.05
O      2 -0.4529220000000 -0.0647060000000  0.1826610000000 1.0   0.04
O      2 -0.4066280000000 -0.0129210000000  0.5078000000000 1.0   0.06
P      3 -0.0819210000000  0.3135130000000 -0.2764080000000 1.0   0.02
P      3 -0.3135130000000  0.0819210000000  0.2764080000000 1.0   0.02
Fe     4  0.2624230000000 -0.3352270000000  0.3144480000000 1.0   3.80
Fe     4  0.3352270000000 -0.2624230000000 -0.3144480000000 1.0   3.80
END
