TITL 2LFP-201124-044852-0f2b39 0.0680 157.434011 -6071.934901024 8.00000 8.11789 14 (C2) n - 1
REM
REM Run started: Tue, 24 Nov 2020 10:27:44 +0000 in /scratch/scratch/uccabz1/launch_tmp/launcher_2020-11-24-04-48-50-068888
REM CASTEP 19.11| from code version Version unavailable
REM Functional Perdew Burke Ernzerhof Relativity Koelling-Harmon Dispersion off
REM Cut-off 300.0000 eV Grid scale 1.7500 Gmax 15.5288 1/A FBSC none
REM MP grid 4 5 3 Offset 0.000 0.000 0.000 No. kpts 30 Spacing 0.07
REM Total runtime: 20319.7 s
REM Overall efficiency: 95 %
REM
REM 2LFP.cell (a815d5d25b9f25a0a111bfe3624e67be)
REM
REM compiler GCC version 4.9.2
REM options -cpp -iprefix /scratch/UCL/applications/gcc/4.9.2/bin/../lib/gcc/x86_64-unknown-linux-gnu/4.9.2/ -mtune=corei7 -march=x86-64 -g -O2
REM COMMAND_LINE
REM seed -1578119593 1481285146 806431082 -74159118 853705527 1265361343 -1917107352 -1033150184 1851927756 1935117904 -715805444 1205767538
REM
REM P 3|1.8|4|5|5|30:31:32(qc=5)
REM O 2|1.5|12|13|15|20:21(qc=5)
REM Li 1|1.3|8|9|10|10U:20(qc=5)
REM Fe 3|2.2|2.0|1.0|8|9|10|40:41:32(qc=5)
REM Fe d:4.0 
REM
CELL 1.54180    5.55856    5.50912    8.29785  126.96709   90.00000  120.29730
LATT -1
SFAC Li O  P  Fe 
Li     1  0.1428620000000  0.4822630000000  0.3852230000000 1.0  -0.05
Li     1 -0.3394010000000 -0.4822630000000 -0.3852230000000 1.0  -0.05
O      2  0.3696910000000 -0.3652340000000 -0.3523950000000 1.0   0.01
O      2  0.3023330000000 -0.5070890000000 -0.1053210000000 1.0   0.03
O      2 -0.0290390000000 -0.3780990000000 -0.1973520000000 1.0   0.03
O      2 -0.2650760000000  0.3652340000000  0.3523950000000 1.0   0.01
O      2 -0.1905780000000  0.5070890000000  0.1053210000000 1.0   0.03
O      2 -0.6509400000000  0.3780990000000  0.1973520000000 1.0   0.03
O      2  0.3515370000000  0.0000000000000  0.5000000000000 1.0   0.19
O      2 -0.1308370000000  0.0000000000000 -0.5000000000000 1.0   0.00
P      3  0.1408920000000 -0.5450360000000 -0.2808310000000 1.0   0.01
P      3 -0.3140720000000  0.5450360000000  0.2808310000000 1.0   0.01
Fe     4 -0.4581830000000  0.2330940000000 -0.2029610000000 1.0   3.87
Fe     4  0.3087220000000 -0.2330940000000  0.2029610000000 1.0   3.87
END
