TITL 2LFP-201123-234227-ed5182 0.0330 133.712235 -6.07039135E+003 8.00000 8.19174 14 (P-1) n - 1
REM
REM Run started: Tue, 24 Nov 2020 02:57:19 +0000 in /lustre/scratch/uccabz1/launch_tmp/launcher_2020-11-23-23-42-25-218139
REM CASTEP 20.1 from code version af48c487+ pr-geom-scf-spinfix Tue Jun 2 15:39:59 2020 +0100
REM Functional Perdew Burke Ernzerhof Relativity Koelling-Harmon Dispersion off
REM Cut-off 300.0000 eV Grid scale 1.7500 Gmax 15.5288 1/A FBSC none
REM MP grid 5 4 3 Offset 0.000 0.000 0.000 No. kpts 30 Spacing 0.07
REM Total runtime: 13170.2 s
REM Overall efficiency: 95.6667 %
REM
REM 2LFP.cell (a815d5d25b9f25a0a111bfe3624e67be)
REM
REM compiler GCC version 4.9.2
REM options -cpp -iprefix /lustre/shared/ucl/apps/gcc/4.9.2/bin/../lib/gcc/x86_64-unknown-linux-gnu/4.9.2/ -mtune=corei7 -march=x86-64 -g -Og
REM COMMAND_LINE
REM seed -1199290182 1992927676 1530604198 -746916109 1606295457 -1103871008 1947179485 -359887223 1926375947 853053780 -691187028 -1441750640
REM
REM P 3|1.8|4|5|5|30:31:32(qc=5)
REM O 2|1.5|12|13|15|20:21(qc=5)
REM Li 1|1.3|8|9|10|10U:20(qc=5)
REM Fe 3|2.2|2.0|1.0|8|9|10|40:41:32(qc=5)
REM Fe d:4.0 
REM
CELL 1.54180    5.33744    5.88126    7.28862  110.49124   76.18083   52.16321
LATT -1
SFAC Li O  P  Fe 
Li     1  0.2555430000000 -0.2494370000000  0.2497150000000 1.0  -0.01
Li     1 -0.2555430000000  0.2494370000000 -0.2497150000000 1.0  -0.01
O      2 -0.3949870000000  0.2024070000000 -0.0020100000000 1.0   0.09
O      2 -0.2343660000000  0.0401740000000  0.2505080000000 1.0   0.04
O      2 -0.2651900000000  0.4599480000000  0.2495040000000 1.0   0.04
O      2 -0.8948030000000  0.7017200000000  0.4980660000000 1.0   0.09
O      2  0.3949870000000 -0.2024070000000  0.0020100000000 1.0   0.09
O      2  0.2343660000000 -0.0401740000000 -0.2505080000000 1.0   0.04
O      2  0.2651900000000 -0.4599480000000 -0.2495040000000 1.0   0.04
O      2  0.8948030000000 -0.7017200000000 -0.4980660000000 1.0   0.09
P      3  0.5000000000000  0.5000000000000  0.5000000000000 1.0   0.00
P      3  0.0000000000000  0.0000000000000  0.0000000000000 1.0   0.00
Fe     4  0.2491790000000  0.2518670000000  0.2498600000000 1.0   3.75
Fe     4 -0.2491790000000 -0.2518670000000 -0.2498600000000 1.0   3.75
END
