TITL 2LFP-201124-035937-9c2576 0.0056 146.023185 -6.07371114E+003 8.00000 8.07334 14 (P-1) n - 1
REM
REM Run started: Tue, 24 Nov 2020 06:13:20 +0000 in /lustre/scratch/uccabz1/launch_tmp/launcher_2020-11-24-03-54-28-529966
REM CASTEP 20.1 from code version af48c487+ pr-geom-scf-spinfix Tue Jun 2 15:39:59 2020 +0100
REM Functional Perdew Burke Ernzerhof Relativity Koelling-Harmon Dispersion off
REM Cut-off 300.0000 eV Grid scale 1.7500 Gmax 15.5288 1/A FBSC none
REM MP grid 4 4 3 Offset 0.000 0.000 0.000 No. kpts 24 Spacing 0.07
REM Total runtime: 9320.39 s
REM Overall efficiency: 96.375 %
REM
REM 2LFP.cell (a815d5d25b9f25a0a111bfe3624e67be)
REM
REM compiler GCC version 4.9.2
REM options -cpp -iprefix /lustre/shared/ucl/apps/gcc/4.9.2/bin/../lib/gcc/x86_64-unknown-linux-gnu/4.9.2/ -mtune=corei7 -march=x86-64 -g -Og
REM COMMAND_LINE
REM seed 1799798753 -1654812494 690063745 208511561 1028296092 77673029 429015195 1232172261 -1188457139 -1152519310 -2032075383 735920181
REM
REM P 3|1.8|4|5|5|30:31:32(qc=5)
REM O 2|1.5|12|13|15|20:21(qc=5)
REM Li 1|1.3|8|9|10|10U:20(qc=5)
REM Fe 3|2.2|2.0|1.0|8|9|10|40:41:32(qc=5)
REM Fe d:4.0 
REM
CELL 1.54180    4.87443    5.72788    7.42828   55.36148   66.62781   60.08199
LATT -1
SFAC Li O  P  Fe 
Li     1  0.0829450000000 -0.2991000000000 -0.1740680000000 1.0  -0.04
Li     1 -0.0829450000000  0.2991000000000  0.1740680000000 1.0  -0.04
O      2 -0.4807620000000  0.6842990000000 -0.3653410000000 1.0   0.05
O      2  0.0188170000000  0.3790080000000 -0.1754450000000 1.0   0.03
O      2 -0.4937300000000  0.2515110000000  0.0104350000000 1.0   0.04
O      2 -0.1285260000000  0.1429950000000 -0.3117670000000 1.0   0.04
O      2  0.4807620000000 -0.6842990000000  0.3653410000000 1.0   0.05
O      2 -0.0188170000000 -0.3790080000000  0.1754450000000 1.0   0.03
O      2  0.4937300000000 -0.2515110000000 -0.0104350000000 1.0   0.04
O      2  0.1285260000000 -0.1429950000000  0.3117670000000 1.0   0.04
P      3 -0.2650650000000  0.3605540000000 -0.2086420000000 1.0   0.01
P      3  0.2650650000000 -0.3605540000000  0.2086420000000 1.0   0.01
Fe     4 -0.4396910000000 -0.1082740000000  0.3069100000000 1.0   3.86
Fe     4  0.4396910000000  0.1082740000000 -0.3069100000000 1.0   3.86
END
