TITL 2LFP-201123-224810-c8f611 0.0047 154.696626 -6.06725061E+003 -7.27155 7.94143 14 (P-1) n - 1
REM
REM Run started: Tue, 24 Nov 2020 02:28:02 +0000 in /scratch/scratch/uccabz1/launch_tmp/launcher_2020-11-23-22-48-00-149174
REM CASTEP 19.11| from code version Version unavailable
REM Functional Perdew Burke Ernzerhof Relativity Koelling-Harmon Dispersion off
REM Cut-off 300.0000 eV Grid scale 1.7500 Gmax 15.5288 1/A FBSC none
REM MP grid 5 4 2 Offset 0.000 0.000 0.000 No. kpts 20 Spacing 0.07
REM Total runtime: 13297.2 s
REM Overall efficiency: 93.2727 %
REM
REM 2LFP.cell (a815d5d25b9f25a0a111bfe3624e67be)
REM
REM compiler GCC version 4.9.2
REM options -cpp -iprefix /scratch/UCL/applications/gcc/4.9.2/bin/../lib/gcc/x86_64-unknown-linux-gnu/4.9.2/ -mtune=corei7 -march=x86-64 -g -O2
REM COMMAND_LINE
REM seed 2053815320 -1748159111 -1482232513 -339974566 904695337 1389256221 -1316051863 771490819 617963400 -132213841 -1377323797 962556130
REM
REM P 3|1.8|4|5|5|30:31:32(qc=5)
REM O 2|1.5|12|13|15|20:21(qc=5)
REM Li 1|1.3|8|9|10|10U:20(qc=5)
REM Fe 3|2.2|2.0|1.0|8|9|10|40:41:32(qc=5)
REM Fe d:4.0 
REM
CELL 1.54180    3.65375    3.72592   11.91498   92.88704   73.27510   86.65592
LATT -1
SFAC Li O  P  Fe 
Li     1 -0.5744300000000 -0.0244980000000  0.1074710000000 1.0   0.02
Li     1  0.5744300000000  0.0244980000000 -0.1074710000000 1.0   0.02
O      2  0.2934570000000  0.3732040000000 -0.1968990000000 1.0  -0.00
O      2 -0.0420960000000  0.7742250000000 -0.3200410000000 1.0  -0.02
O      2  0.4802340000000  0.2638770000000 -0.4226840000000 1.0  -0.02
O      2 -0.2934570000000 -0.3732040000000  0.1968990000000 1.0  -0.00
O      2  0.0420960000000 -0.7742250000000  0.3200410000000 1.0  -0.02
O      2 -0.4802340000000 -0.2638770000000  0.4226840000000 1.0  -0.02
O      2  0.0000000000000  0.0000000000000  0.0000000000000 1.0  -0.11
O      2  0.5000000000000 -0.5000000000000  0.0000000000000 1.0  -0.16
P      3  0.1800020000000  0.4164120000000 -0.3084750000000 1.0   0.09
P      3 -0.1800020000000 -0.4164120000000  0.3084750000000 1.0   0.09
Fe     4  0.0000000000000  0.0000000000000  0.5000000000000 1.0  -3.78
Fe     4  0.0000000000000  0.5000000000000  0.0000000000000 1.0  -3.39
END
