TITL 2LFP-201123-211527-4737db 0.0292 152.958604 -6.06970199E+003 8.00000 8.07788 14 (P-1) n - 1
REM
REM Run started: Mon, 23 Nov 2020 22:07:11 +0000 in /scratch/scratch/uccabz1/launch_tmp/launcher_2020-11-23-21-15-25-822300
REM CASTEP 19.11| from code version Version unavailable
REM Functional Perdew Burke Ernzerhof Relativity Koelling-Harmon Dispersion off
REM Cut-off 300.0000 eV Grid scale 1.7500 Gmax 15.5288 1/A FBSC none
REM MP grid 4 4 2 Offset 0.000 0.000 0.000 No. kpts 16 Spacing 0.07
REM Total runtime: 3783.32 s
REM Overall efficiency: 84.375 %
REM
REM 2LFP.cell (a815d5d25b9f25a0a111bfe3624e67be)
REM
REM compiler GCC version 4.9.2
REM options -cpp -iprefix /scratch/UCL/applications/gcc/4.9.2/bin/../lib/gcc/x86_64-unknown-linux-gnu/4.9.2/ -mtune=corei7 -march=x86-64 -g -O2
REM COMMAND_LINE
REM seed 1535411510 657872987 2038717013 -22820433 1314552806 -601719355 943430526 1307679426 -1387132707 1727961969 2117383543 -2122157923
REM
REM P 3|1.8|4|5|5|30:31:32(qc=5)
REM O 2|1.5|12|13|15|20:21(qc=5)
REM Li 1|1.3|8|9|10|10U:20(qc=5)
REM Fe 3|2.2|2.0|1.0|8|9|10|40:41:32(qc=5)
REM Fe d:4.0 
REM
CELL 1.54180    4.51689    4.85076    8.29599  108.63986   84.02450   66.98495
LATT -1
SFAC Li O  P  Fe 
Li     1  0.1357870000000  0.1930490000000  0.1695650000000 1.0  -0.06
Li     1 -0.1357870000000 -0.1930490000000 -0.1695650000000 1.0  -0.06
O      2  0.2711030000000  0.4198050000000 -0.1884180000000 1.0   0.03
O      2  0.1444920000000 -0.0820320000000 -0.2920150000000 1.0   0.04
O      2 -0.1282760000000  0.4193170000000 -0.3660060000000 1.0   0.03
O      2 -0.2711030000000 -0.4198050000000  0.1884180000000 1.0   0.03
O      2 -0.1444920000000  0.0820320000000  0.2920150000000 1.0   0.04
O      2  0.1282760000000 -0.4193170000000  0.3660060000000 1.0   0.03
O      2  0.5000000000000  0.0000000000000 -0.5000000000000 1.0   0.03
O      2  0.5000000000000  0.0000000000000  0.0000000000000 1.0   0.15
P      3  0.1743840000000  0.1978090000000 -0.3251420000000 1.0   0.01
P      3 -0.1743840000000 -0.1978090000000  0.3251420000000 1.0   0.01
Fe     4  0.5000000000000 -0.5000000000000  0.0000000000000 1.0   3.86
Fe     4 -0.5000000000000  0.5000000000000 -0.5000000000000 1.0   3.85
END
