TITL 2LFP-201124-045036-6c2483 -0.0264 156.530433 -6.07320116E+003 8.00000 8.07796 14 (Pc) n - 1
REM
REM Run started: Tue, 24 Nov 2020 05:22:35 +0000 in /lustre/scratch/uccabz1/launch_tmp/launcher_2020-11-24-04-50-34-715343
REM CASTEP 20.1 from code version af48c487+ pr-geom-scf-spinfix Tue Jun 2 15:39:59 2020 +0100
REM Functional Perdew Burke Ernzerhof Relativity Koelling-Harmon Dispersion off
REM Cut-off 300.0000 eV Grid scale 1.7500 Gmax 15.5288 1/A FBSC none
REM MP grid 4 4 3 Offset 0.000 0.000 0.000 No. kpts 16 Spacing 0.07
REM Total runtime: 2370.52 s
REM Overall efficiency: 94.4 %
REM
REM 2LFP.cell (a815d5d25b9f25a0a111bfe3624e67be)
REM
REM compiler GCC version 4.9.2
REM options -cpp -iprefix /lustre/shared/ucl/apps/gcc/4.9.2/bin/../lib/gcc/x86_64-unknown-linux-gnu/4.9.2/ -mtune=corei7 -march=x86-64 -g -Og
REM COMMAND_LINE
REM seed -781352629 -1898281934 416950899 -749743774 1878391530 -691150270 -677122327 778052571 -1185488968 1179657676 1271182709 1708771066
REM
REM P 3|1.8|4|5|5|30:31:32(qc=5)
REM O 2|1.5|12|13|15|20:21(qc=5)
REM Li 1|1.3|8|9|10|10U:20(qc=5)
REM Fe 3|2.2|2.0|1.0|8|9|10|40:41:32(qc=5)
REM Fe d:4.0 
REM
CELL 1.54180    5.56801    5.20306    6.51286   90.00000   90.00000  123.94252
LATT -1
SFAC Li O  P  Fe 
Li     1  0.2552870000000  0.2536900000000  0.2902090000000 1.0  -0.04
Li     1 -0.2447130000000  0.2536900000000 -0.2902090000000 1.0  -0.04
O      2  0.1392330000000 -0.4579410000000  0.1663800000000 1.0   0.05
O      2 -0.0387720000000 -0.4141950000000  0.5144970000000 1.0   0.03
O      2 -0.0710820000000 -0.1348160000000  0.2046310000000 1.0   0.03
O      2 -0.3953750000000 -0.7313930000000  0.2288050000000 1.0   0.03
O      2  0.6392330000000 -0.4579410000000 -0.1663800000000 1.0   0.05
O      2  0.4612280000000 -0.4141950000000 -0.5144970000000 1.0   0.03
O      2  0.4289180000000 -0.1348160000000 -0.2046310000000 1.0   0.03
O      2  0.1046250000000 -0.7313930000000 -0.2288050000000 1.0   0.03
P      3 -0.0929040000000 -0.4345440000000  0.2816880000000 1.0   0.01
P      3  0.4070960000000 -0.4345440000000 -0.2816880000000 1.0   0.01
Fe     4  0.0630420000000 -0.1403090000000 -0.2219160000000 1.0   3.88
Fe     4 -0.4369580000000 -0.1403090000000  0.2219160000000 1.0   3.88
END
