TITL 2LFP-201130-192914-a0c230 0.0245 159.736935 -6.07266302E+003 8.00000 8.10727 14 (P1) n - 1
REM
REM Run started: Mon, 30 Nov 2020 21:06:13 +0000 in /scratch/scratch/mmm0366/launch_tmp/launcher_2020-11-30-19-25-28-149260
REM CASTEP 19.11| from code version Version unavailable
REM Functional Perdew Burke Ernzerhof Relativity Koelling-Harmon Dispersion off
REM Cut-off 300.0000 eV Grid scale 1.7500 Gmax 15.5288 1/A FBSC none
REM MP grid 4 3 3 Offset 0.000 0.000 0.000 No. kpts 12 Spacing 0.07
REM Total runtime: 6122.42 s
REM Overall efficiency: 95.2222 %
REM
REM 2LFP.cell (a815d5d25b9f25a0a111bfe3624e67be)
REM
REM compiler GCC version 4.9.2
REM options -cpp -iprefix /scratch/UCL/applications/gcc/4.9.2/bin/../lib/gcc/x86_64-unknown-linux-gnu/4.9.2/ -mtune=corei7 -march=x86-64 -g -O2
REM COMMAND_LINE
REM seed 203130502 1427956759 -1187960609 1655448264 263465545 1997002361 891094865 -1165304904 -1377286863 402555434 22240221 1228562910
REM
REM P 3|1.8|4|5|5|30:31:32(qc=5)
REM O 2|1.5|12|13|15|20:21(qc=5)
REM Li 1|1.3|8|9|10|10U:20(qc=5)
REM Fe 3|2.2|2.0|1.0|8|9|10|40:41:32(qc=5)
REM Fe d:4.0 
REM
CELL 1.54180    4.05725    6.76176    6.76176  120.33502   88.06781   88.06781
LATT -1
SFAC Li O  P  Fe 
Li     1  0.0675340000000  0.0842460000000  0.5508230000000 1.0  -0.03
Li     1  0.0675340000000  0.5508230000000  0.0842460000000 1.0  -0.03
O      2 -0.2133050000000 -0.2746890000000 -0.0140270000000 1.0   0.04
O      2 -0.2573490000000  0.1175520000000  0.3697590000000 1.0   0.03
O      2 -0.6973530000000 -0.1692050000000  0.2740160000000 1.0   0.01
O      2 -0.2133050000000 -0.0140270000000 -0.2746890000000 1.0   0.04
O      2 -0.2573490000000  0.3697590000000  0.1175520000000 1.0   0.03
O      2 -0.6973530000000  0.2740160000000 -0.1692050000000 1.0   0.01
O      2  0.1794960000000 -0.4953980000000 -0.4953980000000 1.0   0.18
O      2  0.3744460000000  0.0425400000000  0.0425400000000 1.0   0.01
P      3 -0.4352510000000 -0.0783790000000  0.1810070000000 1.0   0.01
P      3 -0.4352510000000  0.1810070000000 -0.0783790000000 1.0   0.01
Fe     4 -0.3245510000000  0.4547370000000  0.4547370000000 1.0   3.89
Fe     4  0.1201800000000 -0.2182730000000 -0.2182730000000 1.0   3.81
END
