TITL 2LFP-201124-032617-eba229 0.0435 154.560620 -6.07268222E+003 8.00000 8.17512 14 (Cm) n - 1
REM
REM Run started: Tue, 24 Nov 2020 04:39:28 +0000 in /lustre/scratch/uccabz1/launch_tmp/launcher_2020-11-24-03-26-13-421484
REM CASTEP 20.1 from code version af48c487+ pr-geom-scf-spinfix Tue Jun 2 15:39:59 2020 +0100
REM Functional Perdew Burke Ernzerhof Relativity Koelling-Harmon Dispersion off
REM Cut-off 300.0000 eV Grid scale 1.7500 Gmax 15.5288 1/A FBSC none
REM MP grid 3 3 4 Offset 0.000 0.000 0.000 No. kpts 12 Spacing 0.07
REM Total runtime: 4999.49 s
REM Overall efficiency: 88.125 %
REM
REM 2LFP.cell (a815d5d25b9f25a0a111bfe3624e67be)
REM
REM compiler GCC version 4.9.2
REM options -cpp -iprefix /lustre/shared/ucl/apps/gcc/4.9.2/bin/../lib/gcc/x86_64-unknown-linux-gnu/4.9.2/ -mtune=corei7 -march=x86-64 -g -Og
REM COMMAND_LINE
REM seed -720138354 -677438842 1689802023 -2037473469 -2142451788 8939863 -1134710164 -70917894 -1017661223 -415230722 -1570493794 1042224619
REM
REM P 3|1.8|4|5|5|30:31:32(qc=5)
REM O 2|1.5|12|13|15|20:21(qc=5)
REM Li 1|1.3|8|9|10|10U:20(qc=5)
REM Fe 3|2.2|2.0|1.0|8|9|10|40:41:32(qc=5)
REM Fe d:4.0 
REM
CELL 1.54180    6.44604    6.44604    4.83243  117.83432  117.83432   69.15427
LATT -1
SFAC Li O  P  Fe 
Li     1  0.3244090000000 -0.1697400000000  0.0427510000000 1.0  -0.04
Li     1 -0.1697400000000  0.3244090000000  0.0427510000000 1.0  -0.04
O      2 -0.4095950000000 -0.0304240000000  0.0967480000000 1.0   0.02
O      2 -0.6676300000000 -0.1561230000000 -0.5355840000000 1.0   0.02
O      2 -0.4433140000000  0.1891210000000 -0.2594800000000 1.0   0.02
O      2 -0.0304240000000 -0.4095950000000  0.0967480000000 1.0   0.02
O      2 -0.1561230000000 -0.6676300000000 -0.5355840000000 1.0   0.02
O      2  0.1891210000000 -0.4433140000000 -0.2594800000000 1.0   0.02
O      2  0.7761200000000  0.7761200000000  0.6515660000000 1.0   0.01
O      2  0.0996070000000  0.0996070000000 -0.0349930000000 1.0   0.20
P      3 -0.4524460000000 -0.0438050000000 -0.2527520000000 1.0   0.01
P      3 -0.0438050000000 -0.4524460000000 -0.2527520000000 1.0   0.01
Fe     4  0.3071870000000  0.3071870000000  0.3451730000000 1.0   3.85
Fe     4 -0.0353540000000 -0.0353540000000 -0.5266030000000 1.0   3.89
END
