TITL 2LFP-201124-041538-34db6c -0.1185 179.125229 -6.07402675E+003 8.00000 8.13161 14 (C2) n - 1
REM
REM Run started: Tue, 24 Nov 2020 06:22:16 +0000 in /lustre/scratch/uccabz1/launch_tmp/launcher_2020-11-24-04-15-36-914446
REM CASTEP 20.1 from code version af48c487+ pr-geom-scf-spinfix Tue Jun 2 15:39:59 2020 +0100
REM Functional Perdew Burke Ernzerhof Relativity Koelling-Harmon Dispersion off
REM Cut-off 300.0000 eV Grid scale 1.7500 Gmax 15.5288 1/A FBSC none
REM MP grid 4 4 2 Offset 0.000 0.000 0.000 No. kpts 10 Spacing 0.07
REM Total runtime: 8471.96 s
REM Overall efficiency: 72.2308 %
REM
REM 2LFP.cell (a815d5d25b9f25a0a111bfe3624e67be)
REM
REM compiler GCC version 4.9.2
REM options -cpp -iprefix /lustre/shared/ucl/apps/gcc/4.9.2/bin/../lib/gcc/x86_64-unknown-linux-gnu/4.9.2/ -mtune=corei7 -march=x86-64 -g -Og
REM COMMAND_LINE
REM seed 773825051 -674123239 1629433860 1151197028 -1510313248 -860986225 -1942402398 382014081 -1786498956 1177092700 1319926202 1427549831
REM
REM P 3|1.8|4|5|5|30:31:32(qc=5)
REM O 2|1.5|12|13|15|20:21(qc=5)
REM Li 1|1.3|8|9|10|10U:20(qc=5)
REM Fe 3|2.2|2.0|1.0|8|9|10|40:41:32(qc=5)
REM Fe d:4.0 
REM
CELL 1.54180    5.04023    5.04023    8.73846   67.24733   67.24733   65.28300
LATT -1
SFAC Li O  P  Fe 
Li     1 -0.5466500000000 -0.0591310000000  0.5434590000000 1.0  -0.02
Li     1  0.0591310000000  0.5466500000000 -0.5434590000000 1.0  -0.02
O      2 -0.5175610000000 -0.7509400000000  0.3405070000000 1.0   0.04
O      2 -0.1273310000000 -0.5222330000000  0.3214500000000 1.0   0.04
O      2 -0.2690630000000 -0.4398350000000  0.0612890000000 1.0   0.05
O      2 -0.6756790000000 -0.2024320000000  0.3068230000000 1.0   0.03
O      2  0.7509400000000  0.5175610000000 -0.3405070000000 1.0   0.04
O      2  0.5222330000000  0.1273310000000 -0.3214500000000 1.0   0.04
O      2  0.4398350000000  0.2690630000000 -0.0612890000000 1.0   0.05
O      2  0.2024320000000  0.6756790000000 -0.3068230000000 1.0   0.03
P      3 -0.3962120000000 -0.4718510000000  0.2566990000000 1.0   0.01
P      3  0.4718510000000  0.3962120000000 -0.2566990000000 1.0   0.01
Fe     4  0.2622420000000  0.2480020000000  0.1784940000000 1.0   3.84
Fe     4 -0.2480020000000 -0.2622420000000 -0.1784940000000 1.0   3.84
END
