TITL 2LFP-201123-220908-81bb9a 0.0541 166.451296 -6.07426065E+003 8.00000 8.11748 14 (Cc) n - 1
REM
REM Run started: Mon, 23 Nov 2020 22:59:50 +0000 in /lustre/scratch/uccabz1/launch_tmp/launcher_2020-11-23-22-09-04-905728
REM CASTEP 20.1 from code version af48c487+ pr-geom-scf-spinfix Tue Jun 2 15:39:59 2020 +0100
REM Functional Perdew Burke Ernzerhof Relativity Koelling-Harmon Dispersion off
REM Cut-off 300.0000 eV Grid scale 1.7500 Gmax 15.5288 1/A FBSC none
REM MP grid 4 4 2 Offset 0.000 0.000 0.000 No. kpts 16 Spacing 0.07
REM Total runtime: 3423.59 s
REM Overall efficiency: 90.7143 %
REM
REM 2LFP.cell (a815d5d25b9f25a0a111bfe3624e67be)
REM
REM compiler GCC version 4.9.2
REM options -cpp -iprefix /lustre/shared/ucl/apps/gcc/4.9.2/bin/../lib/gcc/x86_64-unknown-linux-gnu/4.9.2/ -mtune=corei7 -march=x86-64 -g -Og
REM COMMAND_LINE
REM seed 2028145566 -1058274720 2038222014 -1410259699 105648715 -2061339535 -510779153 1632151454 -566425874 358687628 1670438506 -1917130050
REM
REM P 3|1.8|4|5|5|30:31:32(qc=5)
REM O 2|1.5|12|13|15|20:21(qc=5)
REM Li 1|1.3|8|9|10|10U:20(qc=5)
REM Fe 3|2.2|2.0|1.0|8|9|10|40:41:32(qc=5)
REM Fe d:4.0 
REM
CELL 1.54180    4.75408    4.93228    8.31449   96.22176  102.99573   61.18810
LATT -1
SFAC Li O  P  Fe 
Li     1  0.1506650000000 -0.0735730000000  0.5133820000000 1.0  -0.04
Li     1  0.0770920000000  0.0735730000000  0.0133820000000 1.0  -0.04
O      2 -0.4959910000000 -0.0039030000000 -0.3686040000000 1.0   0.04
O      2 -0.2843270000000  0.2974500000000 -0.4959310000000 1.0   0.05
O      2 -0.7664480000000  0.5832120000000 -0.3503720000000 1.0   0.03
O      2 -0.1782730000000  0.2560440000000 -0.1936670000000 1.0   0.04
O      2 -0.4998940000000  0.0039030000000  0.1313960000000 1.0   0.04
O      2  0.0131230000000 -0.2974500000000  0.0040690000000 1.0   0.05
O      2 -0.1832360000000 -0.5832120000000  0.1496280000000 1.0   0.03
O      2  0.0777710000000 -0.2560440000000  0.3063330000000 1.0   0.04
P      3 -0.4394890000000  0.2837070000000 -0.3518110000000 1.0   0.01
P      3 -0.1557810000000 -0.2837080000000  0.1481890000000 1.0   0.01
Fe     4 -0.1210250000000 -0.3701800000000 -0.2359140000000 1.0   3.88
Fe     4  0.5087960000000  0.3701800000000  0.2640860000000 1.0   3.88
END
