TITL 2LFP-201123-235822-a33dd7 0.0315 155.029325 -6.07243361E+003 8.00000 8.17594 14 (Cm) n - 1
REM
REM Run started: Tue, 24 Nov 2020 00:26:34 +0000 in /lustre/scratch/uccabz1/launch_tmp/launcher_2020-11-23-23-58-20-252677
REM CASTEP 20.1 from code version af48c487+ pr-geom-scf-spinfix Tue Jun 2 15:39:59 2020 +0100
REM Functional Perdew Burke Ernzerhof Relativity Koelling-Harmon Dispersion off
REM Cut-off 300.0000 eV Grid scale 1.7500 Gmax 15.5288 1/A FBSC none
REM MP grid 4 3 3 Offset 0.000 0.000 0.000 No. kpts 12 Spacing 0.07
REM Total runtime: 1881.35 s
REM Overall efficiency: 71.2857 %
REM
REM 2LFP.cell (a815d5d25b9f25a0a111bfe3624e67be)
REM
REM compiler GCC version 4.9.2
REM options -cpp -iprefix /lustre/shared/ucl/apps/gcc/4.9.2/bin/../lib/gcc/x86_64-unknown-linux-gnu/4.9.2/ -mtune=corei7 -march=x86-64 -g -Og
REM COMMAND_LINE
REM seed -1203696251 -1796454674 -783009818 -797060881 -952813448 71027007 612184734 -1168668245 943927731 -430364069 110883595 -1164869384
REM
REM P 3|1.8|4|5|5|30:31:32(qc=5)
REM O 2|1.5|12|13|15|20:21(qc=5)
REM Li 1|1.3|8|9|10|10U:20(qc=5)
REM Fe 3|2.2|2.0|1.0|8|9|10|40:41:32(qc=5)
REM Fe d:4.0 
REM
CELL 1.54180    4.73795    6.39853    6.39853   94.03354  114.07792  114.07792
LATT -1
SFAC Li O  P  Fe 
Li     1 -0.4272230000000  0.2475140000000 -0.1617830000000 1.0  -0.04
Li     1 -0.4272230000000 -0.1617830000000  0.2475140000000 1.0  -0.04
O      2  0.2055590000000 -0.0953120000000  0.1778630000000 1.0   0.05
O      2  0.0003850000000  0.0879650000000  0.4143700000000 1.0   0.01
O      2  0.3653270000000 -0.1374910000000  0.5907370000000 1.0   0.06
O      2  0.6405220000000  0.2734020000000  0.5614440000000 1.0   0.03
O      2  0.2055590000000  0.1778630000000 -0.0953120000000 1.0   0.05
O      2  0.0003850000000  0.4143700000000  0.0879650000000 1.0   0.01
O      2  0.3653270000000  0.5907370000000 -0.1374910000000 1.0   0.06
O      2  0.6405220000000  0.5614440000000  0.2734020000000 1.0   0.03
P      3  0.2959870000000  0.0339810000000  0.4281880000000 1.0   0.02
P      3  0.2959870000000  0.4281880000000  0.0339810000000 1.0   0.02
Fe     4  1.0220410000000  0.4618950000000  0.4618950000000 1.0   3.91
Fe     4 -0.1939240000000 -0.1331110000000 -0.1331110000000 1.0   3.84
END
