TITL 2LFP-201123-224934-67e7ff 0.0276 158.554191 -6.07265372E+003 8.00000 8.13701 14 (Pccm) n - 1
REM
REM Run started: Mon, 23 Nov 2020 22:59:48 +0000 in /scratch/scratch/uccabz1/launch_tmp/launcher_2020-11-23-22-49-29-718209
REM CASTEP 19.11| from code version Version unavailable
REM Functional Perdew Burke Ernzerhof Relativity Koelling-Harmon Dispersion off
REM Cut-off 300.0000 eV Grid scale 1.7500 Gmax 15.5288 1/A FBSC none
REM MP grid 4 4 2 Offset 0.000 0.000 0.000 No. kpts 4 Spacing 0.07
REM Total runtime: 695.12 s
REM Overall efficiency: 73.8 %
REM
REM 2LFP.cell (a815d5d25b9f25a0a111bfe3624e67be)
REM
REM compiler GCC version 4.9.2
REM options -cpp -iprefix /scratch/UCL/applications/gcc/4.9.2/bin/../lib/gcc/x86_64-unknown-linux-gnu/4.9.2/ -mtune=corei7 -march=x86-64 -g -O2
REM COMMAND_LINE
REM seed -1554244532 510687749 -404586896 1650823595 -1736656719 1751049676 335253291 768308388 -1194405686 -695972111 -623836101 403541004
REM
REM P 3|1.8|4|5|5|30:31:32(qc=5)
REM O 2|1.5|12|13|15|20:21(qc=5)
REM Li 1|1.3|8|9|10|10U:20(qc=5)
REM Fe 3|2.2|2.0|1.0|8|9|10|40:41:32(qc=5)
REM Fe d:4.0 
REM
CELL 1.54180    4.14636    4.28303    8.92810   90.00000   90.00000   90.00000
LATT -1
SFAC Li O  P  Fe 
Li     1  0.0000000000000  0.0000000000000 -0.1497350000000 1.0  -0.06
Li     1  0.0000000000000  0.0000000000000  0.3502650000000 1.0  -0.06
O      2  0.2857760000000 -0.2085280000000  0.4974190000000 1.0   0.05
O      2  0.2861380000000 -0.2089970000000  0.2025050000000 1.0   0.05
O      2 -0.2857760000000  0.2085280000000  0.4974190000000 1.0   0.05
O      2 -0.2861380000000  0.2089970000000  0.2025050000000 1.0   0.05
O      2 -0.2857760000000 -0.2085280000000 -0.0025810000000 1.0   0.05
O      2 -0.2861380000000 -0.2089970000000 -0.2974950000000 1.0   0.05
O      2  0.2857760000000  0.2085280000000 -0.0025810000000 1.0   0.05
O      2  0.2861380000000  0.2089970000000 -0.2974950000000 1.0   0.05
P      3  0.5000000000000  0.0000000000000  0.1000140000000 1.0   0.02
P      3 -0.5000000000000  0.0000000000000 -0.3999860000000 1.0   0.02
Fe     4 -0.5000000000000 -0.5000000000000 -0.1498560000000 1.0   3.83
Fe     4  0.5000000000000  0.5000000000000  0.3501440000000 1.0   3.83
END
