TITL 2LFP-201124-055538-215d80 0.0099 157.802222 -6.07090662E+003 4.00000 4.34403 14 (C2/m) n - 1
REM
REM Run started: Tue, 24 Nov 2020 08:26:23 +0000 in /lustre/scratch/uccabz1/launch_tmp/launcher_2020-11-24-05-55-21-546829
REM CASTEP 20.1 from code version af48c487+ pr-geom-scf-spinfix Tue Jun 2 15:39:59 2020 +0100
REM Functional Perdew Burke Ernzerhof Relativity Koelling-Harmon Dispersion off
REM Cut-off 300.0000 eV Grid scale 1.7500 Gmax 15.5288 1/A FBSC none
REM MP grid 3 3 4 Offset 0.000 0.000 0.000 No. kpts 12 Spacing 0.07
REM Total runtime: 9992.98 s
REM Overall efficiency: 81.25 %
REM
REM 2LFP.cell (a815d5d25b9f25a0a111bfe3624e67be)
REM
REM compiler GCC version 4.9.2
REM options -cpp -iprefix /lustre/shared/ucl/apps/gcc/4.9.2/bin/../lib/gcc/x86_64-unknown-linux-gnu/4.9.2/ -mtune=corei7 -march=x86-64 -g -Og
REM COMMAND_LINE
REM seed -75207195 1476027164 -195668404 -677873701 1018732070 -178440283 -234326940 1276690181 -1543746937 -232823259 700382921 198213087
REM
REM P 3|1.8|4|5|5|30:31:32(qc=5)
REM O 2|1.5|12|13|15|20:21(qc=5)
REM Li 1|1.3|8|9|10|10U:20(qc=5)
REM Fe 3|2.2|2.0|1.0|8|9|10|40:41:32(qc=5)
REM Fe d:4.0 
REM
CELL 1.54180    6.13723    6.13723    5.02754  111.10024  111.10024   96.99261
LATT -1
SFAC Li O  P  Fe 
Li     1 -0.5466090000000 -0.4533910000000  0.0000000000000 1.0  -0.01
Li     1 -0.1258280000000  0.1258280000000  0.0000000000000 1.0  -0.01
O      2 -0.7793330000000 -0.4185550000000 -0.3704560000000 1.0  -0.01
O      2 -1.0514700000000 -0.6772840000000 -0.2145070000000 1.0  -0.02
O      2 -0.8938350000000 -0.9115910000000 -0.6326520000000 1.0  -0.01
O      2 -0.3492990000000 -0.3800780000000 -0.2138080000000 1.0  -0.02
O      2  0.4185550000000  0.7793330000000  0.3704560000000 1.0  -0.01
O      2  0.6772840000000  1.0514700000000  0.2145070000000 1.0  -0.02
O      2  0.9115910000000  0.8938350000000  0.6326520000000 1.0  -0.01
O      2  0.3800780000000  0.3492990000000  0.2138080000000 1.0  -0.02
P      3 -0.0830660000000  0.0830660000000  0.5000000000000 1.0   0.00
P      3  0.4118320000000  0.5881680000000  0.5000000000000 1.0   0.00
Fe     4  0.3874850000000  0.0591070000000  0.2840170000000 1.0   2.08
Fe     4 -0.0591070000000 -0.3874850000000 -0.2840170000000 1.0   2.08
END
