TITL 2LFP-201124-055354-968539 -0.1836 159.252028 -6.07359702E+003 8.00000 8.14588 14 (Cm) n - 1
REM
REM Run started: Tue, 24 Nov 2020 09:41:05 +0000 in /scratch/scratch/uccabz1/launch_tmp/launcher_2020-11-24-05-53-52-228442
REM CASTEP 19.11| from code version Version unavailable
REM Functional Perdew Burke Ernzerhof Relativity Koelling-Harmon Dispersion off
REM Cut-off 300.0000 eV Grid scale 1.7500 Gmax 15.5288 1/A FBSC none
REM MP grid 4 3 3 Offset 0.000 0.000 0.000 No. kpts 12 Spacing 0.07
REM Total runtime: 14703.5 s
REM Overall efficiency: 95.5385 %
REM
REM 2LFP.cell (a815d5d25b9f25a0a111bfe3624e67be)
REM
REM compiler GCC version 4.9.2
REM options -cpp -iprefix /scratch/UCL/applications/gcc/4.9.2/bin/../lib/gcc/x86_64-unknown-linux-gnu/4.9.2/ -mtune=corei7 -march=x86-64 -g -O2
REM COMMAND_LINE
REM seed 826386551 241235678 -1271304161 1336808032 1605424621 -1369267092 -747829127 1173388105 -1320147261 1861143282 -1464525766 -2115035544
REM
REM P 3|1.8|4|5|5|30:31:32(qc=5)
REM O 2|1.5|12|13|15|20:21(qc=5)
REM Li 1|1.3|8|9|10|10U:20(qc=5)
REM Fe 3|2.2|2.0|1.0|8|9|10|40:41:32(qc=5)
REM Fe d:4.0 
REM
CELL 1.54180    4.84744    6.36533    6.36533   99.48491  111.58925  111.58925
LATT -1
SFAC Li O  P  Fe 
Li     1  0.0513650000000 -0.1722080000000  0.2335440000000 1.0  -0.04
Li     1  0.0513650000000  0.2335440000000 -0.1722080000000 1.0  -0.04
O      2 -0.3695600000000  0.2733360000000 -0.4321800000000 1.0   0.05
O      2 -0.3119260000000  0.2420760000000 -0.0443000000000 1.0   0.04
O      2 -0.0096700000000  0.6555550000000 -0.0610900000000 1.0   0.03
O      2 -0.6424120000000  0.4647430000000 -0.2365140000000 1.0   0.02
O      2 -0.3695600000000 -0.4321800000000  0.2733360000000 1.0   0.05
O      2 -0.3119260000000 -0.0443000000000  0.2420760000000 1.0   0.04
O      2 -0.0096700000000 -0.0610900000000  0.6555550000000 1.0   0.03
O      2 -0.6424120000000 -0.2365140000000  0.4647430000000 1.0   0.02
P      3 -0.3410940000000  0.4146670000000 -0.1970740000000 1.0   0.02
P      3 -0.3410940000000 -0.1970740000000  0.4146670000000 1.0   0.02
Fe     4 -0.2728800000000  0.2934650000000  0.2934650000000 1.0   3.83
Fe     4  0.3217950000000 -0.2078770000000 -0.2078770000000 1.0   3.91
END
