TITL 2LFP-201124-020131-6e6b9d 0.0296 159.775205 -6.06677817E+003 4.00000 4.95589 14 (Amm2) n - 1
REM
REM Run started: Tue, 24 Nov 2020 02:52:02 +0000 in /lustre/scratch/uccabz1/launch_tmp/launcher_2020-11-24-02-01-14-839156
REM CASTEP 20.1 from code version af48c487+ pr-geom-scf-spinfix Tue Jun 2 15:39:59 2020 +0100
REM Functional Perdew Burke Ernzerhof Relativity Koelling-Harmon Dispersion off
REM Cut-off 300.0000 eV Grid scale 1.7500 Gmax 15.5288 1/A FBSC none
REM MP grid 4 3 3 Offset 0.000 0.000 0.000 No. kpts 12 Spacing 0.07
REM Total runtime: 3483.52 s
REM Overall efficiency: 77.125 %
REM
REM 2LFP.cell (a815d5d25b9f25a0a111bfe3624e67be)
REM
REM compiler GCC version 4.9.2
REM options -cpp -iprefix /lustre/shared/ucl/apps/gcc/4.9.2/bin/../lib/gcc/x86_64-unknown-linux-gnu/4.9.2/ -mtune=corei7 -march=x86-64 -g -Og
REM COMMAND_LINE
REM seed -1662798564 -1761853505 -1297517261 -1679058621 -981919036 215928089 135593144 -490866824 -1544133611 163405916 -1860783719 1617470096
REM
REM P 3|1.8|4|5|5|30:31:32(qc=5)
REM O 2|1.5|12|13|15|20:21(qc=5)
REM Li 1|1.3|8|9|10|10U:20(qc=5)
REM Fe 3|2.2|2.0|1.0|8|9|10|40:41:32(qc=5)
REM Fe d:4.0 
REM
CELL 1.54180    5.25870    5.87071    6.50493  116.82397  113.84156   90.00000
LATT -1
SFAC Li O  P  Fe 
Li     1 -0.2492430000000  0.2317150000000  0.5015140000000 1.0  -0.01
Li     1  0.2492430000000 -0.2697990000000  0.4984860000000 1.0  -0.01
O      2  0.3307240000000  0.4777600000000  0.2211380000000 1.0  -0.03
O      2  0.3904380000000 -0.0216760000000  0.2212340000000 1.0  -0.03
O      2 -0.3307240000000  0.2566230000000 -0.2211380000000 1.0  -0.03
O      2 -0.3904380000000 -0.2429100000000 -0.2212340000000 1.0  -0.03
O      2 -0.1095860000000  0.4777600000000  0.2211380000000 1.0  -0.03
O      2 -0.1692040000000 -0.0216760000000  0.2212340000000 1.0  -0.03
O      2  0.1095860000000  0.2566230000000 -0.2211380000000 1.0  -0.03
O      2  0.1692040000000 -0.2429100000000 -0.2212340000000 1.0  -0.03
P      3 -0.5000000000000 -0.1689580000000 -1.0000000000000 1.0  -0.03
P      3 -0.0000000000000  0.3296770000000 -0.0000000000000 1.0  -0.03
Fe     4 -0.0000000000000 -0.1008870000000 -0.0000000000000 1.0   2.17
Fe     4  0.5000000000000  0.3992050000000  1.0000000000000 1.0   2.17
END
