TITL 2LFP-201124-032321-e07b8b 0.0677 146.337364 -6.07319858E+003 8.00000 8.11366 14 (C2) n - 1
REM
REM Run started: Tue, 24 Nov 2020 04:17:10 +0000 in /lustre/scratch/uccabz1/launch_tmp/launcher_2020-11-24-03-23-19-182849
REM CASTEP 20.1 from code version af48c487+ pr-geom-scf-spinfix Tue Jun 2 15:39:59 2020 +0100
REM Functional Perdew Burke Ernzerhof Relativity Koelling-Harmon Dispersion off
REM Cut-off 300.0000 eV Grid scale 1.7500 Gmax 15.5288 1/A FBSC none
REM MP grid 4 4 3 Offset 0.000 0.000 0.000 No. kpts 16 Spacing 0.07
REM Total runtime: 3487.31 s
REM Overall efficiency: 89.875 %
REM
REM 2LFP.cell (a815d5d25b9f25a0a111bfe3624e67be)
REM
REM compiler GCC version 4.9.2
REM options -cpp -iprefix /lustre/shared/ucl/apps/gcc/4.9.2/bin/../lib/gcc/x86_64-unknown-linux-gnu/4.9.2/ -mtune=corei7 -march=x86-64 -g -Og
REM COMMAND_LINE
REM seed -2131007830 -2073497396 1396274192 -621381660 586087044 1172507640 -971965969 207945276 -1542335242 -274459534 -1328288665 211320749
REM
REM P 3|1.8|4|5|5|30:31:32(qc=5)
REM O 2|1.5|12|13|15|20:21(qc=5)
REM Li 1|1.3|8|9|10|10U:20(qc=5)
REM Fe 3|2.2|2.0|1.0|8|9|10|40:41:32(qc=5)
REM Fe d:4.0 
REM
CELL 1.54180    5.26375    5.26375    6.04955   83.98281   83.98281   61.59780
LATT -1
SFAC Li O  P  Fe 
Li     1  0.3941100000000 -0.1351360000000 -0.1653710000000 1.0  -0.04
Li     1  0.1351360000000 -0.3941100000000  0.1653710000000 1.0  -0.04
O      2  0.5664090000000  0.1755940000000 -0.2431980000000 1.0   0.04
O      2  0.0613200000000  0.2298500000000 -0.2503990000000 1.0   0.06
O      2  0.1280500000000  0.6543570000000 -0.1519150000000 1.0   0.02
O      2  0.2259290000000  0.4991430000000 -0.5477730000000 1.0   0.03
O      2 -0.1755940000000 -0.5664090000000  0.2431980000000 1.0   0.04
O      2 -0.2298500000000 -0.0613200000000  0.2503990000000 1.0   0.06
O      2 -0.6543570000000 -0.1280500000000  0.1519150000000 1.0   0.02
O      2 -0.4991430000000 -0.2259290000000  0.5477730000000 1.0   0.03
P      3  0.2471070000000  0.3978580000000 -0.3032780000000 1.0   0.01
P      3 -0.3978580000000 -0.2471070000000  0.3032780000000 1.0   0.01
Fe     4 -0.0039080000000  0.0039080000000  0.5000000000000 1.0   3.90
Fe     4 -0.2278000000000  0.2278000000000  0.0000000000000 1.0   3.88
END
