TITL 2LFP-201124-040225-6feb54 -0.0275 139.065532 -6.07225282E+003 8.00000 8.11509 14 (Cc) n - 1
REM
REM Run started: Tue, 24 Nov 2020 05:32:42 +0000 in /lustre/scratch/uccabz1/launch_tmp/launcher_2020-11-24-04-02-23-506438
REM CASTEP 20.1 from code version af48c487+ pr-geom-scf-spinfix Tue Jun 2 15:39:59 2020 +0100
REM Functional Perdew Burke Ernzerhof Relativity Koelling-Harmon Dispersion off
REM Cut-off 300.0000 eV Grid scale 1.7500 Gmax 15.5288 1/A FBSC none
REM MP grid 4 4 3 Offset 0.000 0.000 0.000 No. kpts 24 Spacing 0.07
REM Total runtime: 6123.76 s
REM Overall efficiency: 75.375 %
REM
REM 2LFP.cell (a815d5d25b9f25a0a111bfe3624e67be)
REM
REM compiler GCC version 4.9.2
REM options -cpp -iprefix /lustre/shared/ucl/apps/gcc/4.9.2/bin/../lib/gcc/x86_64-unknown-linux-gnu/4.9.2/ -mtune=corei7 -march=x86-64 -g -Og
REM COMMAND_LINE
REM seed -1060763284 901564164 -1759243308 -37467699 -466730057 1772043708 2144136931 -650143948 1475160744 -1549740546 1613169550 -19731322
REM
REM P 3|1.8|4|5|5|30:31:32(qc=5)
REM O 2|1.5|12|13|15|20:21(qc=5)
REM Li 1|1.3|8|9|10|10U:20(qc=5)
REM Fe 3|2.2|2.0|1.0|8|9|10|40:41:32(qc=5)
REM Fe d:4.0 
REM
CELL 1.54180    5.63578    5.25200    5.56792   90.37031   90.69019   57.55187
LATT -1
SFAC Li O  P  Fe 
Li     1 -0.1787460000000  0.1128330000000 -0.3825590000000 1.0  -0.03
Li     1 -0.0659130000000 -0.1128330000000  0.1174410000000 1.0  -0.03
O      2 -0.1417570000000 -0.2726280000000 -0.2101020000000 1.0   0.03
O      2  0.0870360000000 -0.7187500000000 -0.5253470000000 1.0   0.05
O      2  0.1682530000000 -0.2734590000000 -0.5062370000000 1.0   0.03
O      2  0.3827160000000 -0.7364140000000 -0.2051390000000 1.0   0.05
O      2 -0.4143850000000  0.2726280000000  0.2898980000000 1.0   0.03
O      2 -0.6317130000000  0.7187500000000 -0.0253470000000 1.0   0.05
O      2 -0.1052060000000  0.2734590000000 -0.0062370000000 1.0   0.03
O      2 -0.3536980000000  0.7364140000000  0.2948610000000 1.0   0.05
P      3  0.1223700000000 -0.4964980000000 -0.3602640000000 1.0   0.01
P      3 -0.3741280000000  0.4964980000000  0.1397360000000 1.0   0.01
Fe     4  0.2889110000000 -0.8315030000000  0.1390640000000 1.0   3.86
Fe     4 -0.5425910000000  0.8315030000000 -0.3609360000000 1.0   3.86
END
