TITL 2LFP-201123-230808-2e6d19 0.0333 146.102659 -6.06525816E+003 8.18636 8.34911 14 (P21/m) n - 1
REM
REM Run started: Mon, 23 Nov 2020 23:27:53 +0000 in /lustre/scratch/uccabz1/launch_tmp/launcher_2020-11-23-23-08-06-891381
REM CASTEP 20.1 from code version af48c487+ pr-geom-scf-spinfix Tue Jun 2 15:39:59 2020 +0100
REM Functional Perdew Burke Ernzerhof Relativity Koelling-Harmon Dispersion off
REM Cut-off 300.0000 eV Grid scale 1.7500 Gmax 15.5288 1/A FBSC none
REM MP grid 3 3 3 Offset 0.000 0.000 0.000 No. kpts 10 Spacing 0.07
REM Total runtime: 1283.28 s
REM Overall efficiency: 68.3333 %
REM
REM 2LFP.cell (a815d5d25b9f25a0a111bfe3624e67be)
REM
REM compiler GCC version 4.9.2
REM options -cpp -iprefix /lustre/shared/ucl/apps/gcc/4.9.2/bin/../lib/gcc/x86_64-unknown-linux-gnu/4.9.2/ -mtune=corei7 -march=x86-64 -g -Og
REM COMMAND_LINE
REM seed -1737924693 -2140163476 626619580 -1824076512 1549515305 -1748200726 1837055020 768191911 1976897467 -2081208624 -1818248027 -1930719790
REM
REM P 3|1.8|4|5|5|30:31:32(qc=5)
REM O 2|1.5|12|13|15|20:21(qc=5)
REM Li 1|1.3|8|9|10|10U:20(qc=5)
REM Fe 3|2.2|2.0|1.0|8|9|10|40:41:32(qc=5)
REM Fe d:4.0 
REM
CELL 1.54180    4.98775    4.99807    5.86235   91.34987   90.00000   90.00000
LATT -1
SFAC Li O  P  Fe 
Li     1  0.2500000000000 -0.2403030000000  0.4932160000000 1.0  -0.05
Li     1 -0.2500000000000  0.2403030000000 -0.4932160000000 1.0  -0.05
O      2 -0.4791170000000 -0.0381790000000 -0.2705160000000 1.0   0.08
O      2 -0.4776550000000 -0.4945260000000 -0.2667630000000 1.0   0.09
O      2  0.0208830000000  0.0381790000000  0.2705160000000 1.0   0.08
O      2  0.0223450000000  0.4945260000000  0.2667630000000 1.0   0.09
O      2  0.4791170000000  0.0381790000000  0.2705160000000 1.0   0.08
O      2  0.4776550000000  0.4945260000000  0.2667630000000 1.0   0.09
O      2 -0.0208830000000 -0.0381790000000 -0.2705160000000 1.0   0.08
O      2 -0.0223450000000 -0.4945260000000 -0.2667630000000 1.0   0.09
P      3 -0.2500000000000 -0.2647440000000 -0.2407260000000 1.0   0.02
P      3  0.2500000000000  0.2647440000000  0.2407260000000 1.0   0.02
Fe     4 -0.2500000000000 -0.2401270000000  0.1899840000000 1.0   3.77
Fe     4  0.2500000000000  0.2401270000000 -0.1899840000000 1.0   3.77
END
