TITL 2LFP-201124-052318-f0cc4e -0.0424 144.448432 -6.07340929E+003 8.00000 8.09252 14 (Cc) n - 1
REM
REM Run started: Tue, 24 Nov 2020 05:54:35 +0000 in /scratch/scratch/uccabz1/launch_tmp/launcher_2020-11-24-05-23-16-979888
REM CASTEP 19.11| from code version Version unavailable
REM Functional Perdew Burke Ernzerhof Relativity Koelling-Harmon Dispersion off
REM Cut-off 300.0000 eV Grid scale 1.7500 Gmax 15.5288 1/A FBSC none
REM MP grid 4 4 2 Offset 0.000 0.000 0.000 No. kpts 10 Spacing 0.07
REM Total runtime: 1965.35 s
REM Overall efficiency: 77.1111 %
REM
REM 2LFP.cell (a815d5d25b9f25a0a111bfe3624e67be)
REM
REM compiler GCC version 4.9.2
REM options -cpp -iprefix /scratch/UCL/applications/gcc/4.9.2/bin/../lib/gcc/x86_64-unknown-linux-gnu/4.9.2/ -mtune=corei7 -march=x86-64 -g -O2
REM COMMAND_LINE
REM seed 15792162 -1211167298 9053893 473137449 -1198847717 1282120657 627017905 1364873268 -737849211 -328529289 1693287191 1572853369
REM
REM P 3|1.8|4|5|5|30:31:32(qc=5)
REM O 2|1.5|12|13|15|20:21(qc=5)
REM Li 1|1.3|8|9|10|10U:20(qc=5)
REM Fe 3|2.2|2.0|1.0|8|9|10|40:41:32(qc=5)
REM Fe d:4.0 
REM
CELL 1.54180    4.69326    4.69326    7.26709   84.72364   84.72364   65.20776
LATT -1
SFAC Li O  P  Fe 
Li     1 -0.4786080000000 -0.3948450000000 -0.3877930000000 1.0  -0.04
Li     1 -0.3948450000000 -0.4786080000000  0.1122070000000 1.0  -0.04
O      2 -0.0416990000000  0.1313610000000  0.0294480000000 1.0   0.03
O      2  0.4741260000000 -0.0519770000000 -0.1674510000000 1.0   0.03
O      2  0.2706640000000  0.4789750000000 -0.0164610000000 1.0   0.03
O      2  0.4765940000000 -0.0532230000000  0.1732830000000 1.0   0.03
O      2  0.1313610000000 -0.0416990000000 -0.4705520000000 1.0   0.03
O      2 -0.0519770000000  0.4741260000000 -0.6674510000000 1.0   0.03
O      2  0.4789750000000  0.2706640000000 -0.5164610000000 1.0   0.03
O      2 -0.0532230000000  0.4765940000000 -0.3267170000000 1.0   0.03
P      3  0.2950680000000  0.1380150000000  0.0032800000000 1.0   0.01
P      3  0.1380150000000  0.2950680000000 -0.4967200000000 1.0   0.01
Fe     4 -0.1558300000000 -0.0422550000000  0.3095110000000 1.0   3.91
Fe     4 -0.0422550000000 -0.1558300000000 -0.1904890000000 1.0   3.91
END
