TITL 2LFP-201124-022854-f7f4b2 -0.0500 154.191076 -6.07146612E+003 8.00000 8.11526 14 (P-1) n - 1
REM
REM Run started: Tue, 24 Nov 2020 03:23:34 +0000 in /lustre/scratch/uccabz1/launch_tmp/launcher_2020-11-24-02-28-52-981757
REM CASTEP 20.1 from code version af48c487+ pr-geom-scf-spinfix Tue Jun 2 15:39:59 2020 +0100
REM Functional Perdew Burke Ernzerhof Relativity Koelling-Harmon Dispersion off
REM Cut-off 300.0000 eV Grid scale 1.7500 Gmax 15.5288 1/A FBSC none
REM MP grid 4 4 3 Offset 0.000 0.000 0.000 No. kpts 24 Spacing 0.07
REM Total runtime: 3803.15 s
REM Overall efficiency: 90.375 %
REM
REM 2LFP.cell (a815d5d25b9f25a0a111bfe3624e67be)
REM
REM compiler GCC version 4.9.2
REM options -cpp -iprefix /lustre/shared/ucl/apps/gcc/4.9.2/bin/../lib/gcc/x86_64-unknown-linux-gnu/4.9.2/ -mtune=corei7 -march=x86-64 -g -Og
REM COMMAND_LINE
REM seed 1905921632 -493090759 -896782841 -1128438083 -568001780 -486422337 -1303326254 1313684639 -991558940 -720958962 1898788279 -493430019
REM
REM P 3|1.8|4|5|5|30:31:32(qc=5)
REM O 2|1.5|12|13|15|20:21(qc=5)
REM Li 1|1.3|8|9|10|10U:20(qc=5)
REM Fe 3|2.2|2.0|1.0|8|9|10|40:41:32(qc=5)
REM Fe d:4.0 
REM
CELL 1.54180    5.09526    5.42483    6.71860   69.50823  108.49370   78.17932
LATT -1
SFAC Li O  P  Fe 
Li     1 -0.3213860000000  0.5044470000000 -0.2678170000000 1.0  -0.04
Li     1  0.3213860000000 -0.5044470000000  0.2678170000000 1.0  -0.04
O      2  0.0331090000000 -0.1943590000000  0.2567730000000 1.0   0.03
O      2 -0.3047890000000 -0.5083610000000  0.2675020000000 1.0   0.03
O      2 -0.3340300000000 -0.1600160000000  0.4374230000000 1.0   0.04
O      2 -0.0331090000000  0.1943590000000 -0.2567730000000 1.0   0.03
O      2  0.3047890000000  0.5083610000000 -0.2675020000000 1.0   0.03
O      2  0.3340300000000  0.1600160000000 -0.4374230000000 1.0   0.04
O      2  0.0000000000000  0.5000000000000  0.0000000000000 1.0   0.24
O      2 -0.5000000000000  0.0000000000000  0.0000000000000 1.0   0.01
P      3 -0.2623450000000 -0.2317840000000  0.2527790000000 1.0   0.01
P      3  0.2623450000000  0.2317840000000 -0.2527790000000 1.0   0.01
Fe     4  0.0213070000000  0.1827400000000  0.2503320000000 1.0   3.82
Fe     4 -0.0213070000000 -0.1827400000000 -0.2503320000000 1.0   3.82
END
