TITL 2LFP-201124-032702-0126e9 0.0214 145.526820 -6.07389211E+003 8.00000 8.10023 14 (P-1) n - 1
REM
REM Run started: Tue, 24 Nov 2020 04:02:06 +0000 in /lustre/scratch/uccabz1/launch_tmp/launcher_2020-11-24-03-26-59-524036
REM CASTEP 20.1 from code version af48c487+ pr-geom-scf-spinfix Tue Jun 2 15:39:59 2020 +0100
REM Functional Perdew Burke Ernzerhof Relativity Koelling-Harmon Dispersion off
REM Cut-off 300.0000 eV Grid scale 1.7500 Gmax 15.5288 1/A FBSC none
REM MP grid 4 4 3 Offset 0.000 0.000 0.000 No. kpts 24 Spacing 0.07
REM Total runtime: 2280.62 s
REM Overall efficiency: 83.4286 %
REM
REM 2LFP.cell (a815d5d25b9f25a0a111bfe3624e67be)
REM
REM compiler GCC version 4.9.2
REM options -cpp -iprefix /lustre/shared/ucl/apps/gcc/4.9.2/bin/../lib/gcc/x86_64-unknown-linux-gnu/4.9.2/ -mtune=corei7 -march=x86-64 -g -Og
REM COMMAND_LINE
REM seed 411697895 1052501383 -21434647 -682511041 -1320985344 1395582882 1167560080 -1171982081 -85173576 2037709237 1411760599 -1943819059
REM
REM P 3|1.8|4|5|5|30:31:32(qc=5)
REM O 2|1.5|12|13|15|20:21(qc=5)
REM Li 1|1.3|8|9|10|10U:20(qc=5)
REM Fe 3|2.2|2.0|1.0|8|9|10|40:41:32(qc=5)
REM Fe d:4.0 
REM
CELL 1.54180    4.92116    5.44756    6.35337  105.89981   90.93524  115.89666
LATT -1
SFAC Li O  P  Fe 
Li     1 -0.1406260000000  0.4958880000000 -0.3284410000000 1.0  -0.03
Li     1  0.1406260000000 -0.4958880000000  0.3284410000000 1.0  -0.03
O      2  0.2921840000000  0.2464040000000  0.5008970000000 1.0   0.05
O      2  0.7402330000000  0.2071290000000  0.3247560000000 1.0   0.03
O      2  0.1959860000000 -0.1974330000000  0.1843110000000 1.0   0.04
O      2  0.3470930000000  0.2936790000000  0.1258420000000 1.0   0.05
O      2 -0.2921840000000 -0.2464040000000 -0.5008970000000 1.0   0.05
O      2 -0.7402330000000 -0.2071290000000 -0.3247560000000 1.0   0.03
O      2 -0.1959860000000  0.1974330000000 -0.1843110000000 1.0   0.04
O      2 -0.3470930000000 -0.2936790000000 -0.1258420000000 1.0   0.05
P      3  0.3972590000000  0.1335920000000  0.2834710000000 1.0   0.01
P      3 -0.3972590000000 -0.1335920000000 -0.2834710000000 1.0   0.01
Fe     4  0.2537650000000  0.2055630000000 -0.2007020000000 1.0   3.86
Fe     4 -0.2537650000000 -0.2055630000000  0.2007020000000 1.0   3.86
END
