TITL 2LFP-201124-020648-835c2c 0.0210 144.779653 -6.07389110E+003 8.00000 8.08520 14 (P-1) n - 1
REM
REM Run started: Tue, 24 Nov 2020 03:30:33 +0000 in /lustre/scratch/uccabz1/launch_tmp/launcher_2020-11-24-02-06-44-722061
REM CASTEP 20.1 from code version af48c487+ pr-geom-scf-spinfix Tue Jun 2 15:39:59 2020 +0100
REM Functional Perdew Burke Ernzerhof Relativity Koelling-Harmon Dispersion off
REM Cut-off 300.0000 eV Grid scale 1.7500 Gmax 15.5288 1/A FBSC none
REM MP grid 4 4 3 Offset 0.000 0.000 0.000 No. kpts 24 Spacing 0.07
REM Total runtime: 5785.25 s
REM Overall efficiency: 95.3333 %
REM
REM 2LFP.cell (a815d5d25b9f25a0a111bfe3624e67be)
REM
REM compiler GCC version 4.9.2
REM options -cpp -iprefix /lustre/shared/ucl/apps/gcc/4.9.2/bin/../lib/gcc/x86_64-unknown-linux-gnu/4.9.2/ -mtune=corei7 -march=x86-64 -g -Og
REM COMMAND_LINE
REM seed -1621241541 1849987127 1146580807 -363510912 104026755 279621140 -1196884343 11397941 -327255436 -1446587225 -2066563119 -699474284
REM
REM P 3|1.8|4|5|5|30:31:32(qc=5)
REM O 2|1.5|12|13|15|20:21(qc=5)
REM Li 1|1.3|8|9|10|10U:20(qc=5)
REM Fe 3|2.2|2.0|1.0|8|9|10|40:41:32(qc=5)
REM Fe d:4.0 
REM
CELL 1.54180    4.82675    4.95279    6.72799   84.00087   88.29168   64.85423
LATT -1
SFAC Li O  P  Fe 
Li     1 -0.1966980000000  0.3424480000000  0.2613000000000 1.0  -0.04
Li     1  0.1966980000000 -0.3424480000000 -0.2613000000000 1.0  -0.04
O      2 -0.1651000000000  0.0187980000000 -0.3239080000000 1.0   0.04
O      2 -0.2566670000000  0.2572800000000 -0.0086060000000 1.0   0.04
O      2  0.1753150000000  0.2712300000000 -0.2393400000000 1.0   0.05
O      2 -0.3866930000000  0.5899440000000 -0.3356850000000 1.0   0.04
O      2  0.1651000000000 -0.0187980000000  0.3239080000000 1.0   0.04
O      2  0.2566670000000 -0.2572800000000  0.0086060000000 1.0   0.04
O      2 -0.1753150000000 -0.2712300000000  0.2393400000000 1.0   0.05
O      2  0.3866930000000 -0.5899440000000  0.3356850000000 1.0   0.04
P      3 -0.1580140000000  0.2890010000000 -0.2277490000000 1.0   0.01
P      3  0.1580140000000 -0.2890010000000  0.2277490000000 1.0   0.01
Fe     4 -0.5000000000000  0.0000000000000  0.0000000000000 1.0   3.85
Fe     4 -0.5000000000000  0.0000000000000  0.5000000000000 1.0   3.84
END
