TITL 2LFP-201124-024231-7afea7 0.0336 149.995069 -6.07314911E+003 8.00000 8.14016 14 (Fmm2) n - 1
REM
REM Run started: Tue, 24 Nov 2020 03:38:07 +0000 in /lustre/scratch/uccabz1/launch_tmp/launcher_2020-11-24-02-42-29-744440
REM CASTEP 20.1 from code version af48c487+ pr-geom-scf-spinfix Tue Jun 2 15:39:59 2020 +0100
REM Functional Perdew Burke Ernzerhof Relativity Koelling-Harmon Dispersion off
REM Cut-off 300.0000 eV Grid scale 1.7500 Gmax 15.5288 1/A FBSC none
REM MP grid 3 4 4 Offset 0.000 0.000 0.000 No. kpts 16 Spacing 0.07
REM Total runtime: 3865.45 s
REM Overall efficiency: 94.3333 %
REM
REM 2LFP.cell (a815d5d25b9f25a0a111bfe3624e67be)
REM
REM compiler GCC version 4.9.2
REM options -cpp -iprefix /lustre/shared/ucl/apps/gcc/4.9.2/bin/../lib/gcc/x86_64-unknown-linux-gnu/4.9.2/ -mtune=corei7 -march=x86-64 -g -Og
REM COMMAND_LINE
REM seed -67206133 -1170389463 815379462 -155185963 -704096630 -850944372 -1298298018 398298079 1689709351 545191960 -1518755947 -698371665
REM
REM P 3|1.8|4|5|5|30:31:32(qc=5)
REM O 2|1.5|12|13|15|20:21(qc=5)
REM Li 1|1.3|8|9|10|10U:20(qc=5)
REM Fe 3|2.2|2.0|1.0|8|9|10|40:41:32(qc=5)
REM Fe d:4.0 
REM
CELL 1.54180    6.19172    5.80843    5.08223  124.85112   90.00000   90.00000
LATT -1
SFAC Li O  P  Fe 
Li     1 -0.0000000000000 -0.0416630000000 -0.0833270000000 1.0  -0.05
Li     1 -0.5000000000000  0.4583370000000 -0.0833270000000 1.0  -0.05
O      2 -0.3055690000000  0.6475460000000  0.2924370000000 1.0   0.04
O      2 -0.5013670000000  0.0878170000000 -0.2479030000000 1.0   0.04
O      2  0.3055690000000 -0.3551090000000  0.2924370000000 1.0   0.04
O      2  0.5013670000000 -0.3357190000000 -0.2479030000000 1.0   0.04
O      2  0.1944310000000  0.1448910000000  0.2924370000000 1.0   0.04
O      2 -0.0013670000000  0.1642810000000 -0.2479030000000 1.0   0.04
O      2 -0.1944310000000  0.1475460000000  0.2924370000000 1.0   0.04
O      2  0.0013670000000 -0.4121830000000 -0.2479030000000 1.0   0.04
P      3 -0.0000000000000  0.2642460000000 -0.4715080000000 1.0   0.01
P      3 -0.5000000000000 -0.2357540000000 -0.4715080000000 1.0   0.01
Fe     4 -0.0000000000000 -0.4015630000000  0.1968730000000 1.0   3.88
Fe     4 -0.5000000000000  0.0984370000000  0.1968730000000 1.0   3.88
END
