TITL 2LFP-201124-021112-24dcaf -0.0434 161.892210 -6.07307126E+003 8.00000 8.13773 14 (Pc) n - 1
REM
REM Run started: Tue, 24 Nov 2020 03:11:13 +0000 in /lustre/scratch/uccabz1/launch_tmp/launcher_2020-11-24-02-11-09-226423
REM CASTEP 20.1 from code version af48c487+ pr-geom-scf-spinfix Tue Jun 2 15:39:59 2020 +0100
REM Functional Perdew Burke Ernzerhof Relativity Koelling-Harmon Dispersion off
REM Cut-off 300.0000 eV Grid scale 1.7500 Gmax 15.5288 1/A FBSC none
REM MP grid 4 3 2 Offset 0.000 0.000 0.000 No. kpts 8 Spacing 0.07
REM Total runtime: 3836.65 s
REM Overall efficiency: 76.4 %
REM
REM 2LFP.cell (a815d5d25b9f25a0a111bfe3624e67be)
REM
REM compiler GCC version 4.9.2
REM options -cpp -iprefix /lustre/shared/ucl/apps/gcc/4.9.2/bin/../lib/gcc/x86_64-unknown-linux-gnu/4.9.2/ -mtune=corei7 -march=x86-64 -g -Og
REM COMMAND_LINE
REM seed -1999359175 -675448019 -328349555 -149816876 -354614734 2022560160 1427956759 214138949 -2050808646 -783637421 1771423575 365982231
REM
REM P 3|1.8|4|5|5|30:31:32(qc=5)
REM O 2|1.5|12|13|15|20:21(qc=5)
REM Li 1|1.3|8|9|10|10U:20(qc=5)
REM Fe 3|2.2|2.0|1.0|8|9|10|40:41:32(qc=5)
REM Fe d:4.0 
REM
CELL 1.54180    4.03469    5.43438    7.38467   90.00000   89.00558   90.00000
LATT -1
SFAC Li O  P  Fe 
Li     1  0.3118300000000 -0.3700130000000 -0.1370200000000 1.0  -0.03
Li     1  0.3118300000000  0.3700130000000  0.3629800000000 1.0  -0.03
O      2 -0.0283130000000  0.1918060000000 -0.5052620000000 1.0   0.04
O      2 -0.4322570000000  0.0714570000000 -0.2673090000000 1.0   0.06
O      2  0.0051130000000  0.3635130000000 -0.1727540000000 1.0   0.04
O      2 -0.4400630000000  0.5203910000000 -0.3842500000000 1.0   0.04
O      2 -0.0283130000000 -0.1918060000000 -0.0052620000000 1.0   0.04
O      2 -0.4322570000000 -0.0714570000000  0.2326910000000 1.0   0.06
O      2  0.0051130000000 -0.3635130000000  0.3272460000000 1.0   0.04
O      2 -0.4400630000000 -0.5203910000000  0.1157500000000 1.0   0.04
P      3 -0.2126670000000  0.2955840000000 -0.3348810000000 1.0   0.01
P      3 -0.2126670000000 -0.2955840000000  0.1651190000000 1.0   0.01
Fe     4 -0.2706190000000  0.1518030000000  0.0187410000000 1.0   3.84
Fe     4 -0.2706190000000 -0.1518030000000 -0.4812590000000 1.0   3.84
END
