TITL 2LFP-201123-231557-c67c14 0.0031 156.047014 -6.06904551E+003 7.99999 8.11721 14 (P-1) n - 1
REM
REM Run started: Tue, 24 Nov 2020 00:26:31 +0000 in /lustre/scratch/uccabz1/launch_tmp/launcher_2020-11-23-23-15-51-489668
REM CASTEP 20.1 from code version af48c487+ pr-geom-scf-spinfix Tue Jun 2 15:39:59 2020 +0100
REM Functional Perdew Burke Ernzerhof Relativity Koelling-Harmon Dispersion off
REM Cut-off 300.0000 eV Grid scale 1.7500 Gmax 15.5288 1/A FBSC none
REM MP grid 4 3 3 Offset 0.000 0.000 0.000 No. kpts 18 Spacing 0.07
REM Total runtime: 5290.05 s
REM Overall efficiency: 95 %
REM
REM 2LFP.cell (a815d5d25b9f25a0a111bfe3624e67be)
REM
REM compiler GCC version 4.9.2
REM options -cpp -iprefix /lustre/shared/ucl/apps/gcc/4.9.2/bin/../lib/gcc/x86_64-unknown-linux-gnu/4.9.2/ -mtune=corei7 -march=x86-64 -g -Og
REM COMMAND_LINE
REM seed 1685067825 41835072 -2106166492 -108534015 -2086654700 -763096645 1528383311 -1652618890 -1175322322 578740656 395632500 -1395596974
REM
REM P 3|1.8|4|5|5|30:31:32(qc=5)
REM O 2|1.5|12|13|15|20:21(qc=5)
REM Li 1|1.3|8|9|10|10U:20(qc=5)
REM Fe 3|2.2|2.0|1.0|8|9|10|40:41:32(qc=5)
REM Fe d:4.0 
REM
CELL 1.54180    4.47104    5.17092    7.01741   99.58909   81.33777   82.34447
LATT -1
SFAC Li O  P  Fe 
Li     1  0.0000000000000  0.0000000000000  0.0000000000000 1.0  -0.03
Li     1 -0.5000000000000  0.5000000000000  0.5000000000000 1.0  -0.05
O      2  0.4000250000000 -0.2385750000000  0.2896580000000 1.0   0.05
O      2  0.2786180000000  0.2614640000000  0.3638240000000 1.0   0.03
O      2  0.8270840000000  0.0540700000000  0.2582550000000 1.0   0.04
O      2 -0.4000250000000  0.2385750000000 -0.2896580000000 1.0   0.05
O      2 -0.2786180000000 -0.2614640000000 -0.3638240000000 1.0   0.03
O      2 -0.8270840000000 -0.0540700000000 -0.2582550000000 1.0   0.04
O      2  0.0000000000000  0.5000000000000  0.0000000000000 1.0   0.17
O      2  0.5000000000000  0.0000000000000  0.0000000000000 1.0   0.02
P      3  0.4994740000000  0.0206330000000  0.2414260000000 1.0   0.00
P      3 -0.4994740000000 -0.0206330000000 -0.2414260000000 1.0   0.00
Fe     4  0.0000000000000  0.0000000000000  0.5000000000000 1.0   3.82
Fe     4  0.5000000000000 -0.5000000000000  0.0000000000000 1.0   3.84
END
