TITL 2LFP-201124-030310-5ba369 -0.0178 160.063487 -6.07142091E+003 8.00000 8.23020 14 (I222) n - 1
REM
REM Run started: Tue, 24 Nov 2020 03:43:51 +0000 in /lustre/scratch/uccabz1/launch_tmp/launcher_2020-11-24-03-03-08-662981
REM CASTEP 20.1 from code version af48c487+ pr-geom-scf-spinfix Tue Jun 2 15:39:59 2020 +0100
REM Functional Perdew Burke Ernzerhof Relativity Koelling-Harmon Dispersion off
REM Cut-off 300.0000 eV Grid scale 1.7500 Gmax 15.5288 1/A FBSC none
REM MP grid 4 3 3 Offset 0.000 0.000 0.000 No. kpts 12 Spacing 0.07
REM Total runtime: 3278.27 s
REM Overall efficiency: 95 %
REM
REM 2LFP.cell (a815d5d25b9f25a0a111bfe3624e67be)
REM
REM compiler GCC version 4.9.2
REM options -cpp -iprefix /lustre/shared/ucl/apps/gcc/4.9.2/bin/../lib/gcc/x86_64-unknown-linux-gnu/4.9.2/ -mtune=corei7 -march=x86-64 -g -Og
REM COMMAND_LINE
REM seed -649364071 -114592905 -1791771175 -1166190709 -406038543 2061480457 672908787 1618312273 1959414048 737142085 -1886776971 114331425
REM
REM P 3|1.8|4|5|5|30:31:32(qc=5)
REM O 2|1.5|12|13|15|20:21(qc=5)
REM Li 1|1.3|8|9|10|10U:20(qc=5)
REM Fe 3|2.2|2.0|1.0|8|9|10|40:41:32(qc=5)
REM Fe d:4.0 
REM
CELL 1.54180    4.60313    5.33332    7.41064  111.09050  108.09392   90.00000
LATT -1
SFAC Li O  P  Fe 
Li     1  0.0000000000000  0.2449490000000  0.0000000000000 1.0  -0.03
Li     1  0.0000000000000 -0.2449490000000  0.0000000000000 1.0  -0.03
O      2 -0.6120090000000 -0.1234180000000  0.1529330000000 1.0   0.03
O      2 -0.0898870000000  0.0295990000000  0.3911090000000 1.0   0.07
O      2  0.6120090000000 -0.2763510000000 -0.1529330000000 1.0   0.03
O      2  0.0898870000000 -0.3615100000000 -0.3911090000000 1.0   0.07
O      2  0.2350590000000  0.1234180000000 -0.1529330000000 1.0   0.03
O      2  0.5190050000000 -0.0295990000000 -0.3911090000000 1.0   0.07
O      2 -0.2350590000000  0.2763510000000  0.1529330000000 1.0   0.03
O      2 -0.5190050000000  0.3615100000000  0.3911090000000 1.0   0.07
P      3 -0.3688630000000  0.1311370000000  0.2622740000000 1.0   0.01
P      3  0.3688630000000 -0.1311370000000 -0.2622740000000 1.0   0.01
Fe     4 -0.3055840000000 -0.3055840000000  0.3888330000000 1.0   3.83
Fe     4  0.3055840000000  0.3055840000000 -0.3888330000000 1.0   3.83
END
