TITL 2LFP-201124-002956-7d7edc -0.0086 177.984448 -6.07263532E+003 8.00000 8.15959 14 (C2) n - 1
REM
REM Run started: Tue, 24 Nov 2020 01:49:21 +0000 in /lustre/scratch/uccabz1/launch_tmp/launcher_2020-11-24-00-29-54-654698
REM CASTEP 20.1 from code version af48c487+ pr-geom-scf-spinfix Tue Jun 2 15:39:59 2020 +0100
REM Functional Perdew Burke Ernzerhof Relativity Koelling-Harmon Dispersion off
REM Cut-off 300.0000 eV Grid scale 1.7500 Gmax 15.5288 1/A FBSC none
REM MP grid 4 3 2 Offset 0.000 0.000 0.000 No. kpts 12 Spacing 0.07
REM Total runtime: 4906.86 s
REM Overall efficiency: 85.7273 %
REM
REM 2LFP.cell (a815d5d25b9f25a0a111bfe3624e67be)
REM
REM compiler GCC version 4.9.2
REM options -cpp -iprefix /lustre/shared/ucl/apps/gcc/4.9.2/bin/../lib/gcc/x86_64-unknown-linux-gnu/4.9.2/ -mtune=corei7 -march=x86-64 -g -Og
REM COMMAND_LINE
REM seed -683278579 1908617209 -2057375715 -1276704538 -980695400 -1889317042 -1944109688 -468278915 2085988029 -1522863226 758178761 -1457206049
REM
REM P 3|1.8|4|5|5|30:31:32(qc=5)
REM O 2|1.5|12|13|15|20:21(qc=5)
REM Li 1|1.3|8|9|10|10U:20(qc=5)
REM Fe 3|2.2|2.0|1.0|8|9|10|40:41:32(qc=5)
REM Fe d:4.0 
REM
CELL 1.54180    4.72514    5.21005    7.60883   88.44485  108.08957   90.00000
LATT -1
SFAC Li O  P  Fe 
Li     1  0.1876320000000  0.2585950000000  0.4630500000000 1.0  -0.02
Li     1 -0.2754180000000 -0.2585950000000 -0.4630500000000 1.0  -0.02
O      2  0.4430750000000 -0.4998880000000 -0.3581280000000 1.0   0.06
O      2  0.4296310000000 -0.0247900000000 -0.3769310000000 1.0   0.06
O      2  0.0513190000000 -0.2644320000000 -0.2480720000000 1.0   0.01
O      2  0.6077260000000 -0.2406480000000 -0.0683360000000 1.0   0.07
O      2 -0.1987970000000  0.4998880000000  0.3581280000000 1.0   0.06
O      2 -0.1934370000000  0.0247900000000  0.3769310000000 1.0   0.06
O      2 -0.7006090000000  0.2644320000000  0.2480720000000 1.0   0.01
O      2 -0.3239380000000  0.2406480000000  0.0683360000000 1.0   0.07
P      3  0.3648110000000 -0.2594000000000 -0.2590170000000 1.0   0.01
P      3 -0.3761710000000  0.2594000000000  0.2590170000000 1.0   0.01
Fe     4 -0.3471450000000  0.2197440000000 -0.1850510000000 1.0   3.82
Fe     4 -0.1620930000000 -0.2197440000000  0.1850510000000 1.0   3.82
END
