TITL 2LFP-201124-040713-00f483 0.0035 151.547221 -6.07349896E+003 8.00000 8.11018 14 (Pc) n - 1
REM
REM Run started: Tue, 24 Nov 2020 05:06:08 +0000 in /lustre/scratch/uccabz1/launch_tmp/launcher_2020-11-24-04-07-09-394958
REM CASTEP 20.1 from code version af48c487+ pr-geom-scf-spinfix Tue Jun 2 15:39:59 2020 +0100
REM Functional Perdew Burke Ernzerhof Relativity Koelling-Harmon Dispersion off
REM Cut-off 300.0000 eV Grid scale 1.7500 Gmax 15.5288 1/A FBSC none
REM MP grid 4 3 3 Offset 0.000 0.000 0.000 No. kpts 12 Spacing 0.07
REM Total runtime: 4760.6 s
REM Overall efficiency: 94.6667 %
REM
REM 2LFP.cell (a815d5d25b9f25a0a111bfe3624e67be)
REM
REM compiler GCC version 4.9.2
REM options -cpp -iprefix /lustre/shared/ucl/apps/gcc/4.9.2/bin/../lib/gcc/x86_64-unknown-linux-gnu/4.9.2/ -mtune=corei7 -march=x86-64 -g -Og
REM COMMAND_LINE
REM seed -666094484 -564564647 -1507644897 -996817124 1855207990 363075207 2082098968 193059942 -2014837067 1697212238 -742960394 464080686
REM
REM P 3|1.8|4|5|5|30:31:32(qc=5)
REM O 2|1.5|12|13|15|20:21(qc=5)
REM Li 1|1.3|8|9|10|10U:20(qc=5)
REM Fe 3|2.2|2.0|1.0|8|9|10|40:41:32(qc=5)
REM Fe d:4.0 
REM
CELL 1.54180    4.72636    6.00069    5.56159   90.00000  106.10114   90.00000
LATT -1
SFAC Li O  P  Fe 
Li     1 -0.3484320000000  0.1478730000000  0.4508120000000 1.0  -0.03
Li     1  0.1515680000000 -0.1478730000000 -0.0491880000000 1.0  -0.03
O      2 -0.0513060000000  0.3330950000000  0.3711400000000 1.0   0.03
O      2 -0.1104720000000 -0.0393060000000  0.1535990000000 1.0   0.03
O      2 -0.1385190000000  0.3229560000000 -0.1038130000000 1.0   0.04
O      2  0.3411020000000  0.1841670000000  0.1538990000000 1.0   0.04
O      2 -0.5513060000000 -0.3330950000000 -0.1288600000000 1.0   0.03
O      2 -0.6104720000000  0.0393060000000 -0.3464010000000 1.0   0.03
O      2 -0.6385190000000 -0.3229560000000 -0.6038130000000 1.0   0.04
O      2 -0.1588980000000 -0.1841670000000 -0.3461010000000 1.0   0.04
P      3  0.0087020000000  0.2004140000000  0.1458570000000 1.0   0.01
P      3 -0.4912980000000 -0.2004140000000 -0.3541430000000 1.0   0.01
Fe     4  0.3742320000000  0.3425970000000 -0.1765090000000 1.0   3.88
Fe     4 -0.1257680000000 -0.3425970000000  0.3234910000000 1.0   3.88
END
