TITL 2LFP-201123-234532-072dee -0.2792 182.972880 -6.07227124E+003 8.00000 8.13643 14 (Cm) n - 1
REM
REM Run started: Tue, 24 Nov 2020 02:21:38 +0000 in /lustre/scratch/uccabz1/launch_tmp/launcher_2020-11-23-23-45-29-217313
REM CASTEP 20.1 from code version af48c487+ pr-geom-scf-spinfix Tue Jun 2 15:39:59 2020 +0100
REM Functional Perdew Burke Ernzerhof Relativity Koelling-Harmon Dispersion off
REM Cut-off 300.0000 eV Grid scale 1.7500 Gmax 15.5288 1/A FBSC none
REM MP grid 4 3 3 Offset 0.000 0.000 0.000 No. kpts 12 Spacing 0.07
REM Total runtime: 10447.4 s
REM Overall efficiency: 95.4167 %
REM
REM 2LFP.cell (a815d5d25b9f25a0a111bfe3624e67be)
REM
REM compiler GCC version 4.9.2
REM options -cpp -iprefix /lustre/shared/ucl/apps/gcc/4.9.2/bin/../lib/gcc/x86_64-unknown-linux-gnu/4.9.2/ -mtune=corei7 -march=x86-64 -g -Og
REM COMMAND_LINE
REM seed -1614943011 -1523579919 -307512289 688945066 1896341361 2114689869 796648534 -1025180120 1105315515 271301726 1898243589 23863936
REM
REM P 3|1.8|4|5|5|30:31:32(qc=5)
REM O 2|1.5|12|13|15|20:21(qc=5)
REM Li 1|1.3|8|9|10|10U:20(qc=5)
REM Fe 3|2.2|2.0|1.0|8|9|10|40:41:32(qc=5)
REM Fe d:4.0 
REM
CELL 1.54180    4.74543    6.67587    6.67587   93.64089  109.94373  109.94373
LATT -1
SFAC Li O  P  Fe 
Li     1  0.5122990000000 -0.4002820000000 -0.4002820000000 1.0  -0.02
Li     1  0.3729170000000  0.2609940000000  0.2609940000000 1.0  -0.03
O      2  0.1167270000000  0.0375820000000  0.7415430000000 1.0   0.07
O      2  0.0758910000000  0.0580840000000  0.3479990000000 1.0   0.04
O      2  0.3954750000000 -0.1399400000000  0.5789260000000 1.0   0.05
O      2 -0.2268670000000 -0.2979800000000  0.4143730000000 1.0   0.04
O      2  0.1167270000000  0.7415430000000  0.0375820000000 1.0   0.07
O      2  0.0758910000000  0.3479990000000  0.0580840000000 1.0   0.04
O      2  0.3954750000000  0.5789260000000 -0.1399400000000 1.0   0.05
O      2 -0.2268670000000  0.4143730000000 -0.2979800000000 1.0   0.04
P      3  0.0845470000000 -0.0867080000000  0.5266820000000 1.0   0.00
P      3  0.0845470000000  0.5266820000000 -0.0867080000000 1.0   0.00
Fe     4 -0.2351480000000 -0.2159150000000  0.1081920000000 1.0   3.81
Fe     4 -0.2351480000000  0.1081920000000 -0.2159150000000 1.0   3.81
END
