TITL 2LFP-201124-035852-758541 0.0440 177.029618 -6.07089671E+003 8.00000 8.12665 14 (C2) n - 1
REM
REM Run started: Tue, 24 Nov 2020 06:07:35 +0000 in /lustre/scratch/uccabz1/launch_tmp/launcher_2020-11-24-03-58-50-682487
REM CASTEP 20.1 from code version af48c487+ pr-geom-scf-spinfix Tue Jun 2 15:39:59 2020 +0100
REM Functional Perdew Burke Ernzerhof Relativity Koelling-Harmon Dispersion off
REM Cut-off 300.0000 eV Grid scale 1.7500 Gmax 15.5288 1/A FBSC none
REM MP grid 4 4 3 Offset 0.000 0.000 0.000 No. kpts 16 Spacing 0.07
REM Total runtime: 8603.45 s
REM Overall efficiency: 94.5833 %
REM
REM 2LFP.cell (a815d5d25b9f25a0a111bfe3624e67be)
REM
REM compiler GCC version 4.9.2
REM options -cpp -iprefix /lustre/shared/ucl/apps/gcc/4.9.2/bin/../lib/gcc/x86_64-unknown-linux-gnu/4.9.2/ -mtune=corei7 -march=x86-64 -g -Og
REM COMMAND_LINE
REM seed 512989732 -1349329396 2038161400 981044140 -347563066 -2113528400 -1108956631 2015664947 -1030513003 -2019549621 -89855459 464033815
REM
REM P 3|1.8|4|5|5|30:31:32(qc=5)
REM O 2|1.5|12|13|15|20:21(qc=5)
REM Li 1|1.3|8|9|10|10U:20(qc=5)
REM Fe 3|2.2|2.0|1.0|8|9|10|40:41:32(qc=5)
REM Fe d:4.0 
REM
CELL 1.54180    5.33245    5.33245    7.15886   99.38168   99.38168  114.25219
LATT -1
SFAC Li O  P  Fe 
Li     1  0.0870190000000 -0.5112800000000 -0.4898790000000 1.0  -0.01
Li     1  0.5112800000000 -0.0870190000000  0.4898790000000 1.0  -0.01
O      2  0.2193080000000  0.2010960000000  0.1621620000000 1.0   0.05
O      2  0.1925160000000  0.6320920000000  0.2984600000000 1.0   0.06
O      2  0.6816730000000  0.7292140000000  0.3333820000000 1.0   0.04
O      2 -0.2010960000000 -0.2193080000000 -0.1621620000000 1.0   0.05
O      2 -0.6320920000000 -0.1925160000000 -0.2984600000000 1.0   0.06
O      2 -0.7292140000000 -0.6816730000000 -0.3333820000000 1.0   0.04
O      2 -0.6823530000000 -0.3176470000000  0.0000000000000 1.0   0.02
O      2  0.5641090000000  0.4358910000000  0.0000000000000 1.0   0.08
P      3  0.3865900000000  0.5281050000000  0.1809490000000 1.0   0.01
P      3 -0.5281050000000 -0.3865900000000 -0.1809490000000 1.0   0.01
Fe     4  0.2254920000000  0.0364930000000 -0.1435550000000 1.0   3.81
Fe     4 -0.0364930000000 -0.2254920000000  0.1435550000000 1.0   3.81
END
