TITL 2LFP-201124-051627-c0157f 0.0406 156.992187 -6.07159971E+003 8.00000 8.14126 14 (P2) n - 1
REM
REM Run started: Tue, 24 Nov 2020 05:43:48 +0000 in /lustre/scratch/uccabz1/launch_tmp/launcher_2020-11-24-05-16-24-853083
REM CASTEP 20.1 from code version af48c487+ pr-geom-scf-spinfix Tue Jun 2 15:39:59 2020 +0100
REM Functional Perdew Burke Ernzerhof Relativity Koelling-Harmon Dispersion off
REM Cut-off 300.0000 eV Grid scale 1.7500 Gmax 15.5288 1/A FBSC none
REM MP grid 4 3 3 Offset 0.000 0.000 0.000 No. kpts 10 Spacing 0.07
REM Total runtime: 1669.15 s
REM Overall efficiency: 75.7143 %
REM
REM 2LFP.cell (a815d5d25b9f25a0a111bfe3624e67be)
REM
REM compiler GCC version 4.9.2
REM options -cpp -iprefix /lustre/shared/ucl/apps/gcc/4.9.2/bin/../lib/gcc/x86_64-unknown-linux-gnu/4.9.2/ -mtune=corei7 -march=x86-64 -g -Og
REM COMMAND_LINE
REM seed -925567176 -1141142122 403410903 1783674191 1345818243 914051807 -985439945 -980074081 369668847 -782369345 -966283646 -1498365716
REM
REM P 3|1.8|4|5|5|30:31:32(qc=5)
REM O 2|1.5|12|13|15|20:21(qc=5)
REM Li 1|1.3|8|9|10|10U:20(qc=5)
REM Fe 3|2.2|2.0|1.0|8|9|10|40:41:32(qc=5)
REM Fe d:4.0 
REM
CELL 1.54180    4.72048    5.51663    6.28475  106.41385   90.00000   90.00000
LATT -1
SFAC Li O  P  Fe 
Li     1 -0.2299800000000  0.0840560000000 -0.1707240000000 1.0  -0.04
Li     1 -0.2299800000000 -0.0840560000000  0.1707240000000 1.0  -0.04
O      2  0.5143720000000  0.2311380000000  0.4835640000000 1.0   0.05
O      2  0.5557450000000  0.2384080000000  0.0981550000000 1.0   0.04
O      2  0.1612840000000 -0.0573600000000  0.2184460000000 1.0   0.02
O      2  0.1114430000000  0.4087900000000  0.2698340000000 1.0   0.06
O      2  0.5143720000000 -0.2311380000000 -0.4835640000000 1.0   0.05
O      2  0.5557450000000 -0.2384080000000 -0.0981550000000 1.0   0.04
O      2  0.1612840000000  0.0573600000000 -0.2184460000000 1.0   0.02
O      2  0.1114430000000 -0.4087900000000 -0.2698340000000 1.0   0.06
P      3  0.3308290000000  0.1918090000000  0.2716540000000 1.0   0.01
P      3  0.3308290000000 -0.1918090000000 -0.2716540000000 1.0   0.01
Fe     4 -0.1928720000000 -0.5000000000000 -0.5000000000000 1.0   3.85
Fe     4  0.2823690000000 -0.5000000000000  0.0000000000000 1.0   3.88
END
