TITL 2LFP-201124-015837-d91d49 -0.0309 148.321019 -6.07349600E+003 8.00000 8.10253 14 (P-1) n - 1
REM
REM Run started: Tue, 24 Nov 2020 04:00:07 +0000 in /lustre/scratch/uccabz1/launch_tmp/launcher_2020-11-24-01-58-35-763514
REM CASTEP 20.1 from code version af48c487+ pr-geom-scf-spinfix Tue Jun 2 15:39:59 2020 +0100
REM Functional Perdew Burke Ernzerhof Relativity Koelling-Harmon Dispersion off
REM Cut-off 300.0000 eV Grid scale 1.7500 Gmax 15.5288 1/A FBSC none
REM MP grid 3 3 3 Offset 0.000 0.000 0.000 No. kpts 14 Spacing 0.07
REM Total runtime: 7165.86 s
REM Overall efficiency: 95.5556 %
REM
REM 2LFP.cell (a815d5d25b9f25a0a111bfe3624e67be)
REM
REM compiler GCC version 4.9.2
REM options -cpp -iprefix /lustre/shared/ucl/apps/gcc/4.9.2/bin/../lib/gcc/x86_64-unknown-linux-gnu/4.9.2/ -mtune=corei7 -march=x86-64 -g -Og
REM COMMAND_LINE
REM seed -359528331 -1523198797 -1518325383 -754376487 465428942 1229762506 1679327284 1865860756 69656468 201438169 239876088 -996024971
REM
REM P 3|1.8|4|5|5|30:31:32(qc=5)
REM O 2|1.5|12|13|15|20:21(qc=5)
REM Li 1|1.3|8|9|10|10U:20(qc=5)
REM Fe 3|2.2|2.0|1.0|8|9|10|40:41:32(qc=5)
REM Fe d:4.0 
REM
CELL 1.54180    5.17833    5.45113    5.55275   88.98367   73.91164   80.17285
LATT -1
SFAC Li O  P  Fe 
Li     1  0.2861200000000  0.1831150000000 -0.4571980000000 1.0  -0.03
Li     1 -0.2861200000000 -0.1831150000000  0.4571980000000 1.0  -0.03
O      2  0.3889230000000 -0.5797280000000  0.2750830000000 1.0   0.04
O      2  0.4640710000000 -0.1247900000000  0.2422920000000 1.0   0.04
O      2  0.0347570000000 -0.2454040000000  0.1651760000000 1.0   0.04
O      2  0.0949260000000 -0.2378530000000  0.5960520000000 1.0   0.05
O      2 -0.3889230000000  0.5797280000000 -0.2750830000000 1.0   0.04
O      2 -0.4640710000000  0.1247900000000 -0.2422920000000 1.0   0.04
O      2 -0.0347570000000  0.2454040000000 -0.1651760000000 1.0   0.04
O      2 -0.0949260000000  0.2378530000000 -0.5960520000000 1.0   0.05
P      3  0.2461330000000 -0.3048170000000  0.3192980000000 1.0   0.02
P      3 -0.2461330000000  0.3048170000000 -0.3192980000000 1.0   0.02
Fe     4 -0.1936660000000 -0.2214860000000 -0.0786480000000 1.0   3.84
Fe     4  0.1936660000000  0.2214860000000  0.0786480000000 1.0   3.84
END
