TITL 2LFP-201123-234915-4325de 0.0051 176.973404 -6.07332194E+003 8.00000 8.17194 14 (Pba2) n - 1
REM
REM Run started: Tue, 24 Nov 2020 00:19:08 +0000 in /lustre/scratch/uccabz1/launch_tmp/launcher_2020-11-23-23-49-14-171983
REM CASTEP 20.1 from code version af48c487+ pr-geom-scf-spinfix Tue Jun 2 15:39:59 2020 +0100
REM Functional Perdew Burke Ernzerhof Relativity Koelling-Harmon Dispersion off
REM Cut-off 300.0000 eV Grid scale 1.7500 Gmax 15.5288 1/A FBSC none
REM MP grid 3 3 3 Offset 0.000 0.000 0.000 No. kpts 8 Spacing 0.07
REM Total runtime: 2063.03 s
REM Overall efficiency: 77.75 %
REM
REM 2LFP.cell (a815d5d25b9f25a0a111bfe3624e67be)
REM
REM compiler GCC version 4.9.2
REM options -cpp -iprefix /lustre/shared/ucl/apps/gcc/4.9.2/bin/../lib/gcc/x86_64-unknown-linux-gnu/4.9.2/ -mtune=corei7 -march=x86-64 -g -Og
REM COMMAND_LINE
REM seed -467326020 1789725306 -951164 1392038423 -1842834915 67770933 1068199955 1275565311 1112867827 -545769 -2117762601 -258076622
REM
REM P 3|1.8|4|5|5|30:31:32(qc=5)
REM O 2|1.5|12|13|15|20:21(qc=5)
REM Li 1|1.3|8|9|10|10U:20(qc=5)
REM Fe 3|2.2|2.0|1.0|8|9|10|40:41:32(qc=5)
REM Fe d:4.0 
REM
CELL 1.54180    4.89402    5.87826    6.15168   90.00000   90.00000   90.00000
LATT -1
SFAC Li O  P  Fe 
Li     1 -0.5834320000000  0.5000000000000 -0.0000000000000 1.0  -0.02
Li     1 -0.5834320000000  0.0000000000000 -0.5000000000000 1.0  -0.02
O      2  0.1109020000000  0.2877830000000  0.0080280000000 1.0   0.04
O      2  0.7202730000000  0.4910270000000 -0.1970910000000 1.0   0.04
O      2  0.1109020000000 -0.2877830000000 -0.0080280000000 1.0   0.04
O      2  0.7202730000000 -0.4910270000000  0.1970910000000 1.0   0.04
O      2  0.1109020000000  0.2122170000000  0.5080280000000 1.0   0.04
O      2  0.7202730000000  0.0089730000000  0.3029090000000 1.0   0.04
O      2  0.1109020000000 -0.2122170000000 -0.5080280000000 1.0   0.04
O      2  0.7202730000000 -0.0089730000000 -0.3029090000000 1.0   0.04
P      3 -0.0770500000000  0.5000000000000 -0.0000000000000 1.0   0.01
P      3 -0.0770500000000  0.0000000000000  0.5000000000000 1.0   0.01
Fe     4 -0.1449850000000  0.0000000000000 -0.0000000000000 1.0   3.87
Fe     4 -0.1449850000000  0.5000000000000  0.5000000000000 1.0   3.87
END
