TITL 2LFP-201124-044834-264775 0.0360 172.589308 -6.07259444E+003 8.00000 8.19709 14 (Cm) n - 1
REM
REM Run started: Tue, 24 Nov 2020 08:10:46 +0000 in /lustre/scratch/uccabz1/launch_tmp/launcher_2020-11-24-04-48-31-491870
REM CASTEP 20.1 from code version af48c487+ pr-geom-scf-spinfix Tue Jun 2 15:39:59 2020 +0100
REM Functional Perdew Burke Ernzerhof Relativity Koelling-Harmon Dispersion off
REM Cut-off 300.0000 eV Grid scale 1.7500 Gmax 15.5288 1/A FBSC none
REM MP grid 4 4 3 Offset 0.000 0.000 0.000 No. kpts 16 Spacing 0.07
REM Total runtime: 11808.8 s
REM Overall efficiency: 91.6667 %
REM
REM 2LFP.cell (a815d5d25b9f25a0a111bfe3624e67be)
REM
REM compiler GCC version 4.9.2
REM options -cpp -iprefix /lustre/shared/ucl/apps/gcc/4.9.2/bin/../lib/gcc/x86_64-unknown-linux-gnu/4.9.2/ -mtune=corei7 -march=x86-64 -g -Og
REM COMMAND_LINE
REM seed 924470167 -1690387219 -320868870 -108593605 -1202032332 -754360904 -2027828690 -1733468200 1653530524 1092255080 234625735 1137943970
REM
REM P 3|1.8|4|5|5|30:31:32(qc=5)
REM O 2|1.5|12|13|15|20:21(qc=5)
REM Li 1|1.3|8|9|10|10U:20(qc=5)
REM Fe 3|2.2|2.0|1.0|8|9|10|40:41:32(qc=5)
REM Fe d:4.0 
REM
CELL 1.54180    6.04089    6.04089    8.01812  129.18682  129.18682   73.42760
LATT -1
SFAC Li O  P  Fe 
Li     1  0.6693180000000  0.6693180000000  0.4717460000000 1.0  -0.02
Li     1 -0.1336390000000 -0.1336390000000  0.2804620000000 1.0  -0.04
O      2  0.5904920000000 -0.0474670000000  0.3784620000000 1.0   0.03
O      2  0.2263590000000 -0.3305800000000 -0.1310500000000 1.0   0.03
O      2  0.1099900000000 -0.3169430000000  0.1338500000000 1.0   0.04
O      2 -0.0474670000000  0.5904920000000  0.3784620000000 1.0   0.03
O      2 -0.3305800000000  0.2263590000000 -0.1310500000000 1.0   0.03
O      2 -0.3169430000000  0.1099900000000  0.1338500000000 1.0   0.04
O      2 -0.3821110000000 -0.3821110000000 -0.3591390000000 1.0   0.27
O      2  0.1424160000000  0.1424160000000  0.1879460000000 1.0   0.00
P      3  0.2630780000000 -0.1544590000000  0.1309460000000 1.0   0.01
P      3 -0.1544590000000  0.2630780000000  0.1309460000000 1.0   0.01
Fe     4 -0.2451760000000 -0.6372630000000 -0.2657980000000 1.0   3.78
Fe     4 -0.6372630000000 -0.2451760000000 -0.2657980000000 1.0   3.78
END
