TITL 2LFP-201124-054916-6ac2bc -0.0259 168.643261 -6.07265214E+003 8.00000 8.13762 14 (P-1) n - 1
REM
REM Run started: Tue, 24 Nov 2020 06:26:27 +0000 in /scratch/scratch/uccabz1/launch_tmp/launcher_2020-11-24-05-49-14-000728
REM CASTEP 19.11| from code version Version unavailable
REM Functional Perdew Burke Ernzerhof Relativity Koelling-Harmon Dispersion off
REM Cut-off 300.0000 eV Grid scale 1.7500 Gmax 15.5288 1/A FBSC none
REM MP grid 3 3 4 Offset 0.000 0.000 0.000 No. kpts 18 Spacing 0.07
REM Total runtime: 2523.75 s
REM Overall efficiency: 92.75 %
REM
REM 2LFP.cell (a815d5d25b9f25a0a111bfe3624e67be)
REM
REM compiler GCC version 4.9.2
REM options -cpp -iprefix /scratch/UCL/applications/gcc/4.9.2/bin/../lib/gcc/x86_64-unknown-linux-gnu/4.9.2/ -mtune=corei7 -march=x86-64 -g -O2
REM COMMAND_LINE
REM seed -1911057382 -1599682933 1159522836 1019480379 1696406437 -1793461463 699186652 -1330582034 1358873811 -1918792778 -1738968413 -882185921
REM
REM P 3|1.8|4|5|5|30:31:32(qc=5)
REM O 2|1.5|12|13|15|20:21(qc=5)
REM Li 1|1.3|8|9|10|10U:20(qc=5)
REM Fe 3|2.2|2.0|1.0|8|9|10|40:41:32(qc=5)
REM Fe d:4.0 
REM
CELL 1.54180    6.08631    6.14611    6.13543  127.86770  108.07778   87.82390
LATT -1
SFAC Li O  P  Fe 
Li     1  0.4888850000000  0.2375410000000  0.5731120000000 1.0  -0.02
Li     1 -0.4888850000000 -0.2375410000000 -0.5731120000000 1.0  -0.02
O      2  0.2866780000000  0.4330450000000 -0.2313840000000 1.0   0.04
O      2  0.1481080000000  0.7630660000000  0.1920590000000 1.0   0.05
O      2  0.5008680000000  0.9471070000000  0.2009460000000 1.0   0.04
O      2  0.1059890000000  0.8243470000000 -0.2029480000000 1.0   0.06
O      2 -0.2866780000000 -0.4330450000000  0.2313840000000 1.0   0.04
O      2 -0.1481080000000 -0.7630660000000 -0.1920590000000 1.0   0.05
O      2 -0.5008680000000 -0.9471070000000 -0.2009460000000 1.0   0.04
O      2 -0.1059890000000 -0.8243470000000  0.2029480000000 1.0   0.06
P      3  0.2533870000000  0.7411190000000 -0.0237640000000 1.0   0.02
P      3 -0.2533870000000 -0.7411190000000  0.0237640000000 1.0   0.02
Fe     4  0.1724250000000  0.1442010000000 -0.1927820000000 1.0   3.81
Fe     4 -0.1724250000000 -0.1442010000000  0.1927820000000 1.0   3.81
END
