TITL 2LFP-201123-211207-e9634b 0.0316 161.869258 -6.07221138E+003 8.00000 8.20376 14 (Cm) n - 1
REM
REM Run started: Mon, 23 Nov 2020 22:02:09 +0000 in /lustre/scratch/uccabz1/launch_tmp/launcher_2020-11-23-21-12-01-984699
REM CASTEP 20.1 from code version af48c487+ pr-geom-scf-spinfix Tue Jun 2 15:39:59 2020 +0100
REM Functional Perdew Burke Ernzerhof Relativity Koelling-Harmon Dispersion off
REM Cut-off 300.0000 eV Grid scale 1.7500 Gmax 15.5288 1/A FBSC none
REM MP grid 3 3 4 Offset 0.000 0.000 0.000 No. kpts 16 Spacing 0.07
REM Total runtime: 3249.53 s
REM Overall efficiency: 83.4286 %
REM
REM 2LFP.cell (a815d5d25b9f25a0a111bfe3624e67be)
REM
REM compiler GCC version 4.9.2
REM options -cpp -iprefix /lustre/shared/ucl/apps/gcc/4.9.2/bin/../lib/gcc/x86_64-unknown-linux-gnu/4.9.2/ -mtune=corei7 -march=x86-64 -g -Og
REM COMMAND_LINE
REM seed 915667183 656273854 1870771906 755350710 1578074426 1702471860 -1979268818 -1446255623 -1223876795 812154290 -1470035507 -1099423611
REM
REM P 3|1.8|4|5|5|30:31:32(qc=5)
REM O 2|1.5|12|13|15|20:21(qc=5)
REM Li 1|1.3|8|9|10|10U:20(qc=5)
REM Fe 3|2.2|2.0|1.0|8|9|10|40:41:32(qc=5)
REM Fe d:4.0 
REM
CELL 1.54180    5.77830    5.98096    6.44406  121.06219  120.13666   83.35250
LATT -1
SFAC Li O  P  Fe 
Li     1  0.0047860000000 -0.0973590000000  0.0000000000000 1.0  -0.02
Li     1  0.7917040000000  0.3627790000000  0.0000000000000 1.0  -0.02
O      2 -0.1069860000000  0.0524970000000 -0.2995850000000 1.0   0.05
O      2 -0.5913010000000 -0.0745200000000 -0.7180300000000 1.0   0.05
O      2 -0.3432370000000 -0.4469220000000 -0.7202130000000 1.0   0.05
O      2 -0.4423540000000 -0.1883870000000 -0.3269070000000 1.0   0.05
O      2  0.1925990000000  0.3520820000000  0.2995850000000 1.0   0.05
O      2  0.1267290000000  0.6435100000000  0.7180300000000 1.0   0.05
O      2  0.3769760000000  0.2732910000000  0.7202130000000 1.0   0.05
O      2 -0.1154470000000  0.1385200000000  0.3269070000000 1.0   0.05
P      3 -0.3769700000000 -0.1679020000000 -0.5270690000000 1.0   0.01
P      3  0.1500990000000  0.3591660000000  0.5270690000000 1.0   0.01
Fe     4  0.2275770000000 -0.0574420000000 -0.3177390000000 1.0   3.80
Fe     4  0.5453160000000  0.2602970000000  0.3177390000000 1.0   3.80
END
