TITL 2LFP-201124-040149-fb73a8 -0.0576 154.534338 -6.07454858E+003 8.00000 8.17845 14 (I212121) n - 1
REM
REM Run started: Tue, 24 Nov 2020 05:07:40 +0000 in /lustre/scratch/uccabz1/launch_tmp/launcher_2020-11-24-04-01-45-520305
REM CASTEP 20.1 from code version af48c487+ pr-geom-scf-spinfix Tue Jun 2 15:39:59 2020 +0100
REM Functional Perdew Burke Ernzerhof Relativity Koelling-Harmon Dispersion off
REM Cut-off 300.0000 eV Grid scale 1.7500 Gmax 15.5288 1/A FBSC none
REM MP grid 3 4 4 Offset 0.000 0.000 0.000 No. kpts 24 Spacing 0.07
REM Total runtime: 4892.2 s
REM Overall efficiency: 95.1667 %
REM
REM 2LFP.cell (a815d5d25b9f25a0a111bfe3624e67be)
REM
REM compiler GCC version 4.9.2
REM options -cpp -iprefix /lustre/shared/ucl/apps/gcc/4.9.2/bin/../lib/gcc/x86_64-unknown-linux-gnu/4.9.2/ -mtune=corei7 -march=x86-64 -g -Og
REM COMMAND_LINE
REM seed 987560540 189572816 1871139690 1111802335 1431454066 -776418351 -864551956 -1385447347 1233358719 -1961268722 1844357336 1454586120
REM
REM P 3|1.8|4|5|5|30:31:32(qc=5)
REM O 2|1.5|12|13|15|20:21(qc=5)
REM Li 1|1.3|8|9|10|10U:20(qc=5)
REM Fe 3|2.2|2.0|1.0|8|9|10|40:41:32(qc=5)
REM Fe d:4.0 
REM
CELL 1.54180    5.88876    5.88876    5.83250  112.66366  108.94646  107.26419
LATT -1
SFAC Li O  P  Fe 
Li     1  0.3009380000000 -0.6990620000000  0.0000000000000 1.0  -0.03
Li     1  0.1332740000000  0.6332740000000  0.5000000000000 1.0  -0.03
O      2  0.0342360000000 -0.2166470000000  0.2535070000000 1.0   0.04
O      2  0.4032500000000 -0.3009660000000  0.1714930000000 1.0   0.04
O      2  0.0265810000000 -0.3000440000000 -0.2101610000000 1.0   0.04
O      2  0.3991560000000  0.1529510000000  0.2480500000000 1.0   0.04
O      2 -0.4701540000000 -0.2192710000000 -0.2535070000000 1.0   0.04
O      2 -0.4724590000000  0.2317570000000 -0.1714930000000 1.0   0.04
O      2 -0.0898830000000  0.2367420000000  0.2101610000000 1.0   0.04
O      2 -0.0951000000000  0.1511060000000 -0.2480500000000 1.0   0.04
P      3  0.2163240000000 -0.1661320000000  0.1159330000000 1.0   0.01
P      3 -0.2820650000000  0.1003910000000 -0.1159330000000 1.0   0.01
Fe     4 -0.3729220000000  0.4678510000000 -0.3372720000000 1.0   3.86
Fe     4 -0.1948770000000  0.9643500000000  0.3372720000000 1.0   3.86
END
