TITL 2LFP-201124-011128-d70540 -0.0114 158.166440 -6.07254158E+003 8.00000 8.13883 14 (Cm) n - 1
REM
REM Run started: Tue, 24 Nov 2020 02:19:23 +0000 in /lustre/scratch/uccabz1/launch_tmp/launcher_2020-11-24-01-11-23-869045
REM CASTEP 20.1 from code version af48c487+ pr-geom-scf-spinfix Tue Jun 2 15:39:59 2020 +0100
REM Functional Perdew Burke Ernzerhof Relativity Koelling-Harmon Dispersion off
REM Cut-off 300.0000 eV Grid scale 1.7500 Gmax 15.5288 1/A FBSC none
REM MP grid 4 3 3 Offset 0.000 0.000 0.000 No. kpts 12 Spacing 0.07
REM Total runtime: 4200.35 s
REM Overall efficiency: 74.2727 %
REM
REM 2LFP.cell (a815d5d25b9f25a0a111bfe3624e67be)
REM
REM compiler GCC version 4.9.2
REM options -cpp -iprefix /lustre/shared/ucl/apps/gcc/4.9.2/bin/../lib/gcc/x86_64-unknown-linux-gnu/4.9.2/ -mtune=corei7 -march=x86-64 -g -Og
REM COMMAND_LINE
REM seed -342373804 -552111761 1446914731 -997799310 1658714753 1780074797 57527597 -2000757790 -1500014645 -1626741664 869312767 -878474198
REM
REM P 3|1.8|4|5|5|30:31:32(qc=5)
REM O 2|1.5|12|13|15|20:21(qc=5)
REM Li 1|1.3|8|9|10|10U:20(qc=5)
REM Fe 3|2.2|2.0|1.0|8|9|10|40:41:32(qc=5)
REM Fe d:4.0 
REM
CELL 1.54180    4.82923    6.47728    6.47728   93.51068  115.27250  115.27250
LATT -1
SFAC Li O  P  Fe 
Li     1  0.0361560000000  0.3291300000000 -0.1399320000000 1.0  -0.04
Li     1  0.0361560000000 -0.1399320000000  0.3291300000000 1.0  -0.04
O      2 -0.3383040000000 -0.5827640000000 -0.3101350000000 1.0   0.05
O      2 -0.1667960000000 -0.6398540000000  0.0867970000000 1.0   0.06
O      2  0.0986200000000 -0.2182020000000  0.0719630000000 1.0   0.03
O      2 -0.5407380000000 -0.4148460000000 -0.0681520000000 1.0   0.01
O      2 -0.3383040000000 -0.3101350000000 -0.5827640000000 1.0   0.05
O      2 -0.1667960000000  0.0867970000000 -0.6398540000000 1.0   0.06
O      2  0.0986200000000  0.0719630000000 -0.2182020000000 1.0   0.03
O      2 -0.5407380000000 -0.0681520000000 -0.4148460000000 1.0   0.01
P      3 -0.2495360000000 -0.4616960000000 -0.0600260000000 1.0   0.01
P      3 -0.2495360000000 -0.0600260000000 -0.4616960000000 1.0   0.01
Fe     4  0.2491170000000  0.4100200000000  0.4100200000000 1.0   3.83
Fe     4 -0.5387010000000 -0.0308750000000 -0.0308750000000 1.0   3.91
END
