TITL 2LFP-201124-055656-02cb0f -0.0407 141.152711 -6.07323449E+003 8.00000 8.10966 14 (C2) n - 1
REM
REM Run started: Tue, 24 Nov 2020 09:09:28 +0000 in /lustre/scratch/uccabz1/launch_tmp/launcher_2020-11-24-05-56-20-186904
REM CASTEP 20.1 from code version af48c487+ pr-geom-scf-spinfix Tue Jun 2 15:39:59 2020 +0100
REM Functional Perdew Burke Ernzerhof Relativity Koelling-Harmon Dispersion off
REM Cut-off 300.0000 eV Grid scale 1.7500 Gmax 15.5288 1/A FBSC none
REM MP grid 4 3 4 Offset 0.000 0.000 0.000 No. kpts 24 Spacing 0.07
REM Total runtime: 12405.4 s
REM Overall efficiency: 96.1111 %
REM
REM 2LFP.cell (a815d5d25b9f25a0a111bfe3624e67be)
REM
REM compiler GCC version 4.9.2
REM options -cpp -iprefix /lustre/shared/ucl/apps/gcc/4.9.2/bin/../lib/gcc/x86_64-unknown-linux-gnu/4.9.2/ -mtune=corei7 -march=x86-64 -g -Og
REM COMMAND_LINE
REM seed 1638819820 -2120809841 -1034206240 -701408272 272648228 -35078426 -346802737 -564501140 -326633966 359595472 1253342403 273939032
REM
REM P 3|1.8|4|5|5|30:31:32(qc=5)
REM O 2|1.5|12|13|15|20:21(qc=5)
REM Li 1|1.3|8|9|10|10U:20(qc=5)
REM Fe 3|2.2|2.0|1.0|8|9|10|40:41:32(qc=5)
REM Fe d:4.0 
REM
CELL 1.54180    4.92094    6.10702    5.74530  112.64615  115.35701   90.00000
LATT -1
SFAC Li O  P  Fe 
Li     1  0.0820660000000 -0.2241900000000 -0.3346410000000 1.0  -0.03
Li     1  0.4167060000000  0.2241900000000  0.3346410000000 1.0  -0.03
O      2  0.6941630000000 -0.3346290000000  0.3042420000000 1.0   0.03
O      2  0.2563450000000 -0.1076940000000  0.2359210000000 1.0   0.03
O      2  0.2016480000000 -0.5125610000000  0.2659670000000 1.0   0.04
O      2  0.5203530000000 -0.1456590000000  0.7027410000000 1.0   0.04
O      2  0.3899200000000  0.3346290000000 -0.3042430000000 1.0   0.03
O      2  0.0204240000000  0.1076940000000 -0.2359210000000 1.0   0.03
O      2 -0.0643200000000  0.5125610000000 -0.2659670000000 1.0   0.04
O      2 -0.1823880000000  0.1456590000000 -0.7027410000000 1.0   0.04
P      3  0.4217150000000 -0.2751330000000  0.3728470000000 1.0   0.01
P      3  0.0488680000000  0.2751330000000 -0.3728470000000 1.0   0.01
Fe     4 -0.2342830000000  0.2570430000000 -0.0165700000000 1.0   3.88
Fe     4 -0.2177130000000 -0.2570430000000  0.0165700000000 1.0   3.88
END
