TITL 2LFP-201124-032503-2c905a 0.0199 152.455417 -6.07060666E+003 8.00000 8.09172 14 (P-1) n - 1
REM
REM Run started: Tue, 24 Nov 2020 04:27:05 +0000 in /lustre/scratch/uccabz1/launch_tmp/launcher_2020-11-24-03-24-57-702266
REM CASTEP 20.1 from code version af48c487+ pr-geom-scf-spinfix Tue Jun 2 15:39:59 2020 +0100
REM Functional Perdew Burke Ernzerhof Relativity Koelling-Harmon Dispersion off
REM Cut-off 300.0000 eV Grid scale 1.7500 Gmax 15.5288 1/A FBSC none
REM MP grid 3 4 3 Offset 0.000 0.000 0.000 No. kpts 18 Spacing 0.07
REM Total runtime: 4529.99 s
REM Overall efficiency: 95.3333 %
REM
REM 2LFP.cell (a815d5d25b9f25a0a111bfe3624e67be)
REM
REM compiler GCC version 4.9.2
REM options -cpp -iprefix /lustre/shared/ucl/apps/gcc/4.9.2/bin/../lib/gcc/x86_64-unknown-linux-gnu/4.9.2/ -mtune=corei7 -march=x86-64 -g -Og
REM COMMAND_LINE
REM seed 75285082 1037130097 -59811015 65741670 -335200436 447470757 663394715 -1208842385 43498116 1204301021 -1827171299 1088364794
REM
REM P 3|1.8|4|5|5|30:31:32(qc=5)
REM O 2|1.5|12|13|15|20:21(qc=5)
REM Li 1|1.3|8|9|10|10U:20(qc=5)
REM Fe 3|2.2|2.0|1.0|8|9|10|40:41:32(qc=5)
REM Fe d:4.0 
REM
CELL 1.54180    5.53739    4.29573    6.90604   96.30485   95.43914  109.43810
LATT -1
SFAC Li O  P  Fe 
Li     1  0.3407660000000  0.6341690000000  0.1204420000000 1.0  -0.04
Li     1 -0.3407660000000 -0.6341690000000 -0.1204420000000 1.0  -0.04
O      2  0.7612030000000  0.0076590000000  0.2367360000000 1.0   0.06
O      2  0.7776280000000  0.5439290000000  0.4593480000000 1.0   0.05
O      2  0.3972170000000  0.2294550000000  0.1818530000000 1.0   0.02
O      2 -0.7612030000000 -0.0076590000000 -0.2367360000000 1.0   0.06
O      2 -0.7776280000000 -0.5439290000000 -0.4593480000000 1.0   0.05
O      2 -0.3972170000000 -0.2294550000000 -0.1818530000000 1.0   0.02
O      2 -0.5000000000000 -1.0000000000000 -0.5000000000000 1.0   0.02
O      2  0.0000000000000  0.5000000000000  0.0000000000000 1.0   0.12
P      3  0.6152230000000  0.2204160000000  0.3318000000000 1.0   0.02
P      3 -0.6152230000000 -0.2204160000000 -0.3318000000000 1.0   0.02
Fe     4  0.0000000000000  0.0000000000000 -0.5000000000000 1.0   3.80
Fe     4  0.0000000000000  0.0000000000000  0.0000000000000 1.0   3.86
END
