TITL 2LFP-201124-002024-ff10d1 0.0160 143.038175 -6.07422596E+003 8.00000 8.15577 14 (P-1) n - 1
REM
REM Run started: Tue, 24 Nov 2020 00:48:52 +0000 in /scratch/scratch/uccabz1/launch_tmp/launcher_2020-11-24-00-20-21-774890
REM CASTEP 19.11| from code version Version unavailable
REM Functional Perdew Burke Ernzerhof Relativity Koelling-Harmon Dispersion off
REM Cut-off 300.0000 eV Grid scale 1.7500 Gmax 15.5288 1/A FBSC none
REM MP grid 3 3 3 Offset 0.000 0.000 0.000 No. kpts 14 Spacing 0.07
REM Total runtime: 2048.76 s
REM Overall efficiency: 92.8333 %
REM
REM 2LFP.cell (a815d5d25b9f25a0a111bfe3624e67be)
REM
REM compiler GCC version 4.9.2
REM options -cpp -iprefix /scratch/UCL/applications/gcc/4.9.2/bin/../lib/gcc/x86_64-unknown-linux-gnu/4.9.2/ -mtune=corei7 -march=x86-64 -g -O2
REM COMMAND_LINE
REM seed 773492077 730731734 1287224935 986777548 -876412354 -1190994993 1144174578 1252466475 -18388112 220550717 -906667730 409093152
REM
REM P 3|1.8|4|5|5|30:31:32(qc=5)
REM O 2|1.5|12|13|15|20:21(qc=5)
REM Li 1|1.3|8|9|10|10U:20(qc=5)
REM Fe 3|2.2|2.0|1.0|8|9|10|40:41:32(qc=5)
REM Fe d:4.0 
REM
CELL 1.54180    5.60090    4.95031    5.96550   93.81832  119.85181   89.93251
LATT -1
SFAC Li O  P  Fe 
Li     1  0.3083940000000 -0.4025420000000  0.1177910000000 1.0  -0.04
Li     1 -0.3083940000000  0.4025420000000 -0.1177910000000 1.0  -0.04
O      2 -0.3188910000000 -0.2160760000000 -0.1361190000000 1.0   0.03
O      2  0.1228200000000 -0.2318580000000  0.2962760000000 1.0   0.06
O      2 -0.1539720000000  0.2057760000000  0.1859180000000 1.0   0.03
O      2 -0.3240230000000 -0.2286300000000  0.2893800000000 1.0   0.06
O      2  0.3188910000000  0.2160760000000  0.1361190000000 1.0   0.03
O      2 -0.1228200000000  0.2318580000000 -0.2962760000000 1.0   0.06
O      2  0.1539720000000 -0.2057760000000 -0.1859180000000 1.0   0.03
O      2  0.3240230000000  0.2286300000000 -0.2893800000000 1.0   0.06
P      3 -0.1742180000000 -0.1047850000000  0.1502260000000 1.0   0.01
P      3  0.1742180000000  0.1047850000000 -0.1502260000000 1.0   0.01
Fe     4  0.5000000000000  0.0000000000000  0.5000000000000 1.0   3.88
Fe     4  0.0000000000000  0.5000000000000 -0.5000000000000 1.0   3.83
END
