TITL 2LFP-201124-011652-8a6b31 0.0135 150.023921 -6.07114244E+003 8.00000 8.10588 14 (Cm) n - 1
REM
REM Run started: Tue, 24 Nov 2020 02:31:24 +0000 in /lustre/scratch/uccabz1/launch_tmp/launcher_2020-11-24-01-16-47-645034
REM CASTEP 20.1 from code version af48c487+ pr-geom-scf-spinfix Tue Jun 2 15:39:59 2020 +0100
REM Functional Perdew Burke Ernzerhof Relativity Koelling-Harmon Dispersion off
REM Cut-off 300.0000 eV Grid scale 1.7500 Gmax 15.5288 1/A FBSC none
REM MP grid 4 3 3 Offset 0.000 0.000 0.000 No. kpts 12 Spacing 0.07
REM Total runtime: 4891.17 s
REM Overall efficiency: 94.375 %
REM
REM 2LFP.cell (a815d5d25b9f25a0a111bfe3624e67be)
REM
REM compiler GCC version 4.9.2
REM options -cpp -iprefix /lustre/shared/ucl/apps/gcc/4.9.2/bin/../lib/gcc/x86_64-unknown-linux-gnu/4.9.2/ -mtune=corei7 -march=x86-64 -g -Og
REM COMMAND_LINE
REM seed -1429915803 446035516 418729051 856767247 552910125 1018041529 1941455373 -1996958983 -509889559 -1938325214 -938148525 -1121773095
REM
REM P 3|1.8|4|5|5|30:31:32(qc=5)
REM O 2|1.5|12|13|15|20:21(qc=5)
REM Li 1|1.3|8|9|10|10U:20(qc=5)
REM Fe 3|2.2|2.0|1.0|8|9|10|40:41:32(qc=5)
REM Fe d:4.0 
REM
CELL 1.54180    4.68236    6.19485    6.19485   75.85986  113.65232  113.65232
LATT -1
SFAC Li O  P  Fe 
Li     1  0.3629440000000  0.2681510000000 -0.3581180000000 1.0  -0.03
Li     1  0.3629440000000 -0.3581180000000  0.2681510000000 1.0  -0.03
O      2  0.0518700000000  0.6339650000000 -0.0345180000000 1.0   0.03
O      2  0.3967050000000  0.4246080000000 -0.0902780000000 1.0   0.00
O      2 -0.2251010000000  0.2083210000000 -0.1735520000000 1.0   0.03
O      2  0.0518700000000 -0.0345180000000  0.6339650000000 1.0   0.03
O      2  0.3967050000000 -0.0902780000000  0.4246080000000 1.0   0.00
O      2 -0.2251010000000 -0.1735520000000  0.2083210000000 1.0   0.03
O      2  0.1566290000000  0.3248500000000  0.3248500000000 1.0   0.16
O      2 -0.0439270000000 -0.4396000000000 -0.4396000000000 1.0   0.00
P      3  0.0568100000000  0.4505950000000 -0.1577270000000 1.0   0.01
P      3  0.0568100000000 -0.1577270000000  0.4505950000000 1.0   0.01
Fe     4 -0.3005590000000  0.2491030000000  0.2491030000000 1.0   3.87
Fe     4 -0.1860000000000 -0.1236350000000 -0.1236350000000 1.0   3.86
END
