TITL 2LFP-201123-212138-a73fc9 -0.0177 145.525547 -6.06733845E+003 4.00000 4.99159 14 (Fdd2) n - 1
REM
REM Run started: Mon, 23 Nov 2020 21:34:38 +0000 in /lustre/scratch/uccabz1/launch_tmp/launcher_2020-11-23-21-21-35-913227
REM CASTEP 20.1 from code version af48c487+ pr-geom-scf-spinfix Tue Jun 2 15:39:59 2020 +0100
REM Functional Perdew Burke Ernzerhof Relativity Koelling-Harmon Dispersion off
REM Cut-off 300.0000 eV Grid scale 1.7500 Gmax 15.5288 1/A FBSC none
REM MP grid 4 4 3 Offset 0.000 0.000 0.000 No. kpts 16 Spacing 0.07
REM Total runtime: 1291.54 s
REM Overall efficiency: 83.6 %
REM
REM 2LFP.cell (a815d5d25b9f25a0a111bfe3624e67be)
REM
REM compiler GCC version 4.9.2
REM options -cpp -iprefix /lustre/shared/ucl/apps/gcc/4.9.2/bin/../lib/gcc/x86_64-unknown-linux-gnu/4.9.2/ -mtune=corei7 -march=x86-64 -g -Og
REM COMMAND_LINE
REM seed -83163886 -619671025 -524011360 1789883332 1076849055 -920234100 -2134320657 1029261859 874385889 1966034573 -1314230376 954809311
REM
REM P 3|1.8|4|5|5|30:31:32(qc=5)
REM O 2|1.5|12|13|15|20:21(qc=5)
REM Li 1|1.3|8|9|10|10U:20(qc=5)
REM Fe 3|2.2|2.0|1.0|8|9|10|40:41:32(qc=5)
REM Fe d:4.0 
REM
CELL 1.54180    5.35088    5.35088    6.22056  106.37710  106.37710  110.14705
LATT -1
SFAC Li O  P  Fe 
Li     1 -0.1716000000000  0.3284000000000 -0.3432000000000 1.0  -0.01
Li     1 -0.4216000000000 -0.4216000000000  0.1568000000000 1.0  -0.01
O      2 -0.3395530000000 -0.2642400000000 -0.0708490000000 1.0  -0.04
O      2 -0.0256300000000 -0.1678610000000  0.3906940000000 1.0  -0.04
O      2  0.2687050000000  0.1933910000000 -0.0708490000000 1.0  -0.04
O      2  0.4163240000000  0.5585550000000  0.3906940000000 1.0  -0.04
O      2 -0.5566090000000  0.0187050000000 -0.5708490000000 1.0  -0.04
O      2 -0.1914450000000  0.1663240000000 -0.1093060000000 1.0  -0.04
O      2 -0.0142400000000 -0.5895530000000 -0.5708490000000 1.0  -0.04
O      2  0.0821390000000 -0.2756300000000 -0.1093060000000 1.0  -0.04
P      3 -0.0272940000000 -0.0272940000000 -0.0545890000000 1.0  -0.04
P      3  0.2227060000000 -0.2772940000000  0.4454110000000 1.0  -0.04
Fe     4  0.1970500000000  0.1970500000000  0.3941000000000 1.0   2.20
Fe     4  0.4470500000000 -0.0529500000000 -0.1059000000000 1.0   2.20
END
