TITL 2LFP-201124-054916-3c4be3 -0.0503 163.240989 -6.06577700E+003 6.10022 9.43361 14 (Cm) n - 1
REM
REM Run started: Tue, 24 Nov 2020 07:06:15 +0000 in /lustre/scratch/uccabz1/launch_tmp/launcher_2020-11-24-05-49-12-278046
REM CASTEP 20.1 from code version af48c487+ pr-geom-scf-spinfix Tue Jun 2 15:39:59 2020 +0100
REM Functional Perdew Burke Ernzerhof Relativity Koelling-Harmon Dispersion off
REM Cut-off 300.0000 eV Grid scale 1.7500 Gmax 15.5288 1/A FBSC none
REM MP grid 4 3 3 Offset 0.000 0.000 0.000 No. kpts 12 Spacing 0.07
REM Total runtime: 4854.1 s
REM Overall efficiency: 94.8571 %
REM
REM 2LFP.cell (a815d5d25b9f25a0a111bfe3624e67be)
REM
REM compiler GCC version 4.9.2
REM options -cpp -iprefix /lustre/shared/ucl/apps/gcc/4.9.2/bin/../lib/gcc/x86_64-unknown-linux-gnu/4.9.2/ -mtune=corei7 -march=x86-64 -g -Og
REM COMMAND_LINE
REM seed -991172169 -1911243448 1025372218 -1792517593 -468011513 1019201344 -1373888681 1934392964 -600480317 1610319358 -349316867 17167483
REM
REM P 3|1.8|4|5|5|30:31:32(qc=5)
REM O 2|1.5|12|13|15|20:21(qc=5)
REM Li 1|1.3|8|9|10|10U:20(qc=5)
REM Fe 3|2.2|2.0|1.0|8|9|10|40:41:32(qc=5)
REM Fe d:4.0 
REM
CELL 1.54180    5.41713    6.23480    6.23480   98.79096  113.80768  113.80768
LATT -1
SFAC Li O  P  Fe 
Li     1 -0.1837060000000 -0.4274450000000 -0.4274450000000 1.0   0.05
Li     1  0.1075330000000  0.0230900000000  0.0230900000000 1.0   0.02
O      2  0.1398860000000  0.0006420000000 -0.2945390000000 1.0  -0.01
O      2  0.0547740000000  0.3599420000000 -0.3607240000000 1.0  -0.03
O      2 -0.2287960000000 -0.0528830000000 -0.7436140000000 1.0  -0.02
O      2  0.1398860000000 -0.2945390000000  0.0006420000000 1.0  -0.01
O      2  0.0547740000000 -0.3607240000000  0.3599420000000 1.0  -0.03
O      2 -0.2287960000000 -0.7436140000000 -0.0528830000000 1.0  -0.02
O      2  0.6599140000000 -0.2392290000000 -0.2392290000000 1.0   0.27
O      2 -0.5702410000000  0.3069940000000  0.3069940000000 1.0  -1.05
P      3 -0.0900030000000  0.0723340000000 -0.4603570000000 1.0  -0.16
P      3 -0.0900030000000 -0.4603570000000  0.0723340000000 1.0  -0.16
Fe     4  0.4608800000000 -0.0559570000000 -0.3615180000000 1.0   3.63
Fe     4  0.4608800000000 -0.3615180000000 -0.0559570000000 1.0   3.63
END
