TITL 2LFP-201124-031958-e7acb2 0.0243 146.138048 -6.06454083E+003 8.00000 8.13214 14 (Pmc21) n - 1
REM
REM Run started: Tue, 24 Nov 2020 03:29:34 +0000 in /lustre/scratch/uccabz1/launch_tmp/launcher_2020-11-24-03-19-56-775247
REM CASTEP 20.1 from code version af48c487+ pr-geom-scf-spinfix Tue Jun 2 15:39:59 2020 +0100
REM Functional Perdew Burke Ernzerhof Relativity Koelling-Harmon Dispersion off
REM Cut-off 300.0000 eV Grid scale 1.7500 Gmax 15.5288 1/A FBSC none
REM MP grid 3 3 3 Offset 0.000 0.000 0.000 No. kpts 8 Spacing 0.07
REM Total runtime: 624.36 s
REM Overall efficiency: 72.6 %
REM
REM 2LFP.cell (a815d5d25b9f25a0a111bfe3624e67be)
REM
REM compiler GCC version 4.9.2
REM options -cpp -iprefix /lustre/shared/ucl/apps/gcc/4.9.2/bin/../lib/gcc/x86_64-unknown-linux-gnu/4.9.2/ -mtune=corei7 -march=x86-64 -g -Og
REM COMMAND_LINE
REM seed -236311921 -1353774043 -552029723 725394954 2143825373 1028875722 -1994714653 -649839024 -211529568 205517361 -1630841783 -2056503942
REM
REM P 3|1.8|4|5|5|30:31:32(qc=5)
REM O 2|1.5|12|13|15|20:21(qc=5)
REM Li 1|1.3|8|9|10|10U:20(qc=5)
REM Fe 3|2.2|2.0|1.0|8|9|10|40:41:32(qc=5)
REM Fe d:4.0 
REM
CELL 1.54180    5.16375    5.28179    5.35818   90.00000   90.00000   90.00000
LATT -1
SFAC Li O  P  Fe 
Li     1  0.0000000000000  0.0873530000000  0.3709440000000 1.0  -0.02
Li     1  0.0000000000000 -0.4126470000000 -0.3709440000000 1.0  -0.02
O      2 -0.2785690000000  0.5367660000000 -0.1134060000000 1.0   0.07
O      2 -0.2782120000000  0.3631140000000  0.4055210000000 1.0   0.05
O      2  0.2785690000000  0.0367660000000  0.1134060000000 1.0   0.07
O      2  0.2782120000000 -0.1368860000000 -0.4055210000000 1.0   0.05
O      2 -0.2785690000000  0.0367660000000  0.1134060000000 1.0   0.07
O      2 -0.2782120000000 -0.1368860000000 -0.4055210000000 1.0   0.05
O      2  0.2785690000000  0.5367660000000 -0.1134060000000 1.0   0.07
O      2  0.2782120000000  0.3631140000000  0.4055210000000 1.0   0.05
P      3 -0.5000000000000  0.2010260000000  0.2563650000000 1.0  -0.03
P      3  0.5000000000000 -0.2989740000000 -0.2563650000000 1.0  -0.03
Fe     4 -0.5000000000000  0.2000970000000 -0.2389230000000 1.0   3.81
Fe     4  0.5000000000000 -0.2999030000000  0.2389230000000 1.0   3.81
END
