TITL 2LFP-201124-021646-c95e9e 0.0097 148.598120 -6.07052456E+003 8.00000 8.09806 14 (P-1) n - 1
REM
REM Run started: Tue, 24 Nov 2020 04:27:33 +0000 in /lustre/scratch/uccabz1/launch_tmp/launcher_2020-11-24-02-16-34-347905
REM CASTEP 20.1 from code version af48c487+ pr-geom-scf-spinfix Tue Jun 2 15:39:59 2020 +0100
REM Functional Perdew Burke Ernzerhof Relativity Koelling-Harmon Dispersion off
REM Cut-off 300.0000 eV Grid scale 1.7500 Gmax 15.5288 1/A FBSC none
REM MP grid 4 4 3 Offset 0.000 0.000 0.000 No. kpts 24 Spacing 0.07
REM Total runtime: 8413.34 s
REM Overall efficiency: 95.6667 %
REM
REM 2LFP.cell (a815d5d25b9f25a0a111bfe3624e67be)
REM
REM compiler GCC version 4.9.2
REM options -cpp -iprefix /lustre/shared/ucl/apps/gcc/4.9.2/bin/../lib/gcc/x86_64-unknown-linux-gnu/4.9.2/ -mtune=corei7 -march=x86-64 -g -Og
REM COMMAND_LINE
REM seed 1837131000 -95502006 -2075364891 -1222164076 -1801072515 -1469264279 1321192396 2137177840 30610469 1258453159 -279039681 -1499931911
REM
REM P 3|1.8|4|5|5|30:31:32(qc=5)
REM O 2|1.5|12|13|15|20:21(qc=5)
REM Li 1|1.3|8|9|10|10U:20(qc=5)
REM Fe 3|2.2|2.0|1.0|8|9|10|40:41:32(qc=5)
REM Fe d:4.0 
REM
CELL 1.54180    4.45147    5.27775    7.67516  112.40186  103.57545  105.60954
LATT -1
SFAC Li O  P  Fe 
Li     1  0.6581550000000 -0.1895190000000  0.2703320000000 1.0  -0.05
Li     1 -0.6581550000000  0.1895190000000 -0.2703320000000 1.0  -0.05
O      2  0.5855260000000  0.1845280000000  0.2483660000000 1.0   0.04
O      2  0.1130910000000  0.0962770000000  0.3701700000000 1.0   0.04
O      2  0.2425130000000  0.5222830000000  0.2886370000000 1.0   0.05
O      2 -0.5855260000000 -0.1845280000000 -0.2483660000000 1.0   0.04
O      2 -0.1130910000000 -0.0962770000000 -0.3701700000000 1.0   0.04
O      2 -0.2425130000000 -0.5222830000000 -0.2886370000000 1.0   0.05
O      2  0.5000000000000 -0.5000000000000  0.0000000000000 1.0   0.13
O      2  0.0000000000000  0.0000000000000  0.0000000000000 1.0   0.02
P      3  0.2491640000000  0.2075820000000  0.2347070000000 1.0   0.00
P      3 -0.2491640000000 -0.2075820000000 -0.2347070000000 1.0   0.00
Fe     4  0.0000000000000 -0.5000000000000  0.0000000000000 1.0   3.88
Fe     4  0.0000000000000  0.5000000000000  0.5000000000000 1.0   3.80
END
