TITL 2LFP-201124-004600-27bacc 0.0011 154.195314 -6.06879460E+003 6.00000 6.59341 14 (Pm) n - 1
REM
REM Run started: Tue, 24 Nov 2020 01:38:01 +0000 in /lustre/scratch/uccabz1/launch_tmp/launcher_2020-11-24-00-45-56-541778
REM CASTEP 20.1 from code version af48c487+ pr-geom-scf-spinfix Tue Jun 2 15:39:59 2020 +0100
REM Functional Perdew Burke Ernzerhof Relativity Koelling-Harmon Dispersion off
REM Cut-off 300.0000 eV Grid scale 1.7500 Gmax 15.5288 1/A FBSC none
REM MP grid 4 4 3 Offset 0.000 0.000 0.000 No. kpts 16 Spacing 0.07
REM Total runtime: 2883.48 s
REM Overall efficiency: 92.25 %
REM
REM 2LFP.cell (a815d5d25b9f25a0a111bfe3624e67be)
REM
REM compiler GCC version 4.9.2
REM options -cpp -iprefix /lustre/shared/ucl/apps/gcc/4.9.2/bin/../lib/gcc/x86_64-unknown-linux-gnu/4.9.2/ -mtune=corei7 -march=x86-64 -g -Og
REM COMMAND_LINE
REM seed 2145670265 1852877684 -2115601405 -220054183 252618609 707416348 530098464 138782808 1614512121 2016766952 729569278 106991996
REM
REM P 3|1.8|4|5|5|30:31:32(qc=5)
REM O 2|1.5|12|13|15|20:21(qc=5)
REM Li 1|1.3|8|9|10|10U:20(qc=5)
REM Fe 3|2.2|2.0|1.0|8|9|10|40:41:32(qc=5)
REM Fe d:4.0 
REM
CELL 1.54180    4.82951    4.98810    6.81420   90.00000   90.00000  110.06031
LATT -1
SFAC Li O  P  Fe 
Li     1  0.1433240000000 -0.2991150000000  0.0000000000000 1.0  -0.02
Li     1  0.1008880000000 -0.3063450000000 -0.5000000000000 1.0  -0.01
O      2 -0.0196930000000  0.2052430000000 -0.2911550000000 1.0  -0.04
O      2 -0.5589060000000 -0.0451860000000 -0.2184830000000 1.0   0.03
O      2 -0.1869450000000 -0.3211010000000 -0.2129780000000 1.0  -0.04
O      2 -0.0196930000000  0.2052430000000  0.2911550000000 1.0  -0.04
O      2 -0.5589060000000 -0.0451860000000  0.2184830000000 1.0   0.03
O      2 -0.1869450000000 -0.3211010000000  0.2129780000000 1.0  -0.04
O      2 -0.5682340000000 -0.4891360000000 -0.5000000000000 1.0   0.01
O      2  0.3157430000000  0.4179630000000  0.0000000000000 1.0   0.04
P      3 -0.2404930000000 -0.0317930000000 -0.1694450000000 1.0   0.01
P      3 -0.2404930000000 -0.0317930000000  0.1694450000000 1.0   0.01
Fe     4  0.4049220000000  0.3863460000000 -0.2521830000000 1.0   3.03
Fe     4  0.4049220000000  0.3863460000000  0.2521830000000 1.0   3.03
END
