TITL 2LFP-201124-054933-8f06ee 0.0394 158.089925 -6.07159768E+003 8.00000 8.13443 14 (P2) n - 1
REM
REM Run started: Tue, 24 Nov 2020 06:58:45 +0000 in /scratch/scratch/uccabz1/launch_tmp/launcher_2020-11-24-05-49-29-444043
REM CASTEP 19.11| from code version Version unavailable
REM Functional Perdew Burke Ernzerhof Relativity Koelling-Harmon Dispersion off
REM Cut-off 300.0000 eV Grid scale 1.7500 Gmax 15.5288 1/A FBSC none
REM MP grid 4 3 3 Offset 0.000 0.000 0.000 No. kpts 10 Spacing 0.07
REM Total runtime: 4367.84 s
REM Overall efficiency: 68.125 %
REM
REM 2LFP.cell (a815d5d25b9f25a0a111bfe3624e67be)
REM
REM compiler GCC version 4.9.2
REM options -cpp -iprefix /scratch/UCL/applications/gcc/4.9.2/bin/../lib/gcc/x86_64-unknown-linux-gnu/4.9.2/ -mtune=corei7 -march=x86-64 -g -O2
REM COMMAND_LINE
REM seed -1353337989 -854287370 -358920898 981557185 1100551914 -816761065 -2067599385 492473834 -358270630 -934916463 -2124187790 1326721396
REM
REM P 3|1.8|4|5|5|30:31:32(qc=5)
REM O 2|1.5|12|13|15|20:21(qc=5)
REM Li 1|1.3|8|9|10|10U:20(qc=5)
REM Fe 3|2.2|2.0|1.0|8|9|10|40:41:32(qc=5)
REM Fe d:4.0 
REM
CELL 1.54180    4.73314    5.37147    6.51195  107.27613   90.00000   90.00000
LATT -1
SFAC Li O  P  Fe 
Li     1  0.3852590000000 -0.3989130000000 -0.1545170000000 1.0  -0.04
Li     1  0.3852590000000  0.3989130000000  0.1545170000000 1.0  -0.04
O      2 -0.2313420000000  0.5781070000000 -0.2018960000000 1.0   0.02
O      2 -0.3038370000000  0.0977020000000 -0.2689170000000 1.0   0.06
O      2  0.0996310000000  0.2739890000000 -0.4728460000000 1.0   0.05
O      2  0.1517400000000  0.2544870000000 -0.1042410000000 1.0   0.04
O      2 -0.2313420000000 -0.5781070000000  0.2018960000000 1.0   0.02
O      2 -0.3038370000000 -0.0977020000000  0.2689170000000 1.0   0.06
O      2  0.0996310000000 -0.2739890000000  0.4728460000000 1.0   0.05
O      2  0.1517400000000 -0.2544870000000  0.1042410000000 1.0   0.04
P      3 -0.0734550000000  0.3121630000000 -0.2653300000000 1.0   0.01
P      3 -0.0734550000000 -0.3121630000000  0.2653300000000 1.0   0.01
Fe     4 -0.1331040000000  0.0000000000000  0.0000000000000 1.0   3.89
Fe     4  0.3968710000000  0.0000000000000 -0.5000000000000 1.0   3.86
END
