TITL 2LFP-201124-003017-147928 -0.0288 164.626073 -6.07420932E+003 8.00000 8.12545 14 (C2) n - 1
REM
REM Run started: Tue, 24 Nov 2020 01:51:38 +0000 in /lustre/scratch/uccabz1/launch_tmp/launcher_2020-11-24-00-25-14-558040
REM CASTEP 20.1 from code version af48c487+ pr-geom-scf-spinfix Tue Jun 2 15:39:59 2020 +0100
REM Functional Perdew Burke Ernzerhof Relativity Koelling-Harmon Dispersion off
REM Cut-off 300.0000 eV Grid scale 1.7500 Gmax 15.5288 1/A FBSC none
REM MP grid 4 4 2 Offset 0.000 0.000 0.000 No. kpts 16 Spacing 0.07
REM Total runtime: 5100.1 s
REM Overall efficiency: 93.5 %
REM
REM 2LFP.cell (a815d5d25b9f25a0a111bfe3624e67be)
REM
REM compiler GCC version 4.9.2
REM options -cpp -iprefix /lustre/shared/ucl/apps/gcc/4.9.2/bin/../lib/gcc/x86_64-unknown-linux-gnu/4.9.2/ -mtune=corei7 -march=x86-64 -g -Og
REM COMMAND_LINE
REM seed -400287958 1431161042 -1818818089 235308540 -1583965330 -1636794086 -782786673 1184062488 718583587 1007871521 -919708651 925474210
REM
REM P 3|1.8|4|5|5|30:31:32(qc=5)
REM O 2|1.5|12|13|15|20:21(qc=5)
REM Li 1|1.3|8|9|10|10U:20(qc=5)
REM Fe 3|2.2|2.0|1.0|8|9|10|40:41:32(qc=5)
REM Fe d:4.0 
REM
CELL 1.54180    4.97060    4.97160    8.42347  110.67283   90.00000  119.99337
LATT -1
SFAC Li O  P  Fe 
Li     1 -0.0478950000000  0.2421500000000 -0.1135710000000 1.0  -0.03
Li     1 -0.2900450000000 -0.2421500000000  0.1135710000000 1.0  -0.03
O      2 -0.0191410000000  0.5882950000000  0.4228610000000 1.0   0.06
O      2  0.1114690000000  0.1880450000000  0.1968810000000 1.0   0.03
O      2 -0.1585480000000  0.4430150000000  0.1072520000000 1.0   0.03
O      2  0.4377690000000  0.8143620000000  0.2709450000000 1.0   0.04
O      2 -0.6074360000000 -0.5882950000000 -0.4228610000000 1.0   0.06
O      2 -0.0765760000000 -0.1880450000000 -0.1968810000000 1.0   0.03
O      2 -0.6015630000000 -0.4430150000000 -0.1072520000000 1.0   0.03
O      2 -0.3765940000000 -0.8143620000000 -0.2709450000000 1.0   0.04
P      3  0.0965640000000  0.5127250000000  0.2463830000000 1.0   0.01
P      3 -0.4161610000000 -0.5127250000000 -0.2463830000000 1.0   0.01
Fe     4  0.4993170000000  0.2823660000000  0.3348910000000 1.0   3.87
Fe     4  0.2169520000000 -0.2823660000000 -0.3348910000000 1.0   3.87
END
