TITL 2LFP-201124-004925-2af892 -0.0200 157.922271 -6.07381708E+003 8.00000 8.14727 14 (Pc) n - 1
REM
REM Run started: Tue, 24 Nov 2020 01:47:40 +0000 in /lustre/scratch/uccabz1/launch_tmp/launcher_2020-11-24-00-49-24-268435
REM CASTEP 20.1 from code version af48c487+ pr-geom-scf-spinfix Tue Jun 2 15:39:59 2020 +0100
REM Functional Perdew Burke Ernzerhof Relativity Koelling-Harmon Dispersion off
REM Cut-off 300.0000 eV Grid scale 1.7500 Gmax 15.5288 1/A FBSC none
REM MP grid 4 3 2 Offset 0.000 0.000 0.000 No. kpts 8 Spacing 0.07
REM Total runtime: 3777.93 s
REM Overall efficiency: 93.3333 %
REM
REM 2LFP.cell (a815d5d25b9f25a0a111bfe3624e67be)
REM
REM compiler GCC version 4.9.2
REM options -cpp -iprefix /lustre/shared/ucl/apps/gcc/4.9.2/bin/../lib/gcc/x86_64-unknown-linux-gnu/4.9.2/ -mtune=corei7 -march=x86-64 -g -Og
REM COMMAND_LINE
REM seed -459594702 1045619835 -592572311 -958565768 -484797689 718339453 402584816 1638943982 -2102933542 19636717 -206336949 534605523
REM
REM P 3|1.8|4|5|5|30:31:32(qc=5)
REM O 2|1.5|12|13|15|20:21(qc=5)
REM Li 1|1.3|8|9|10|10U:20(qc=5)
REM Fe 3|2.2|2.0|1.0|8|9|10|40:41:32(qc=5)
REM Fe d:4.0 
REM
CELL 1.54180    4.05118    4.84716    8.11141   90.00000   82.51040   90.00000
LATT -1
SFAC Li O  P  Fe 
Li     1 -0.1750970000000  0.1880860000000  0.0126830000000 1.0  -0.04
Li     1 -0.1750970000000 -0.1880860000000  0.5126830000000 1.0  -0.04
O      2 -0.4225170000000  0.1352150000000  0.4719140000000 1.0   0.04
O      2  0.0115170000000  0.5122940000000  0.3851540000000 1.0   0.04
O      2  0.0115540000000  0.0474860000000  0.2275750000000 1.0   0.05
O      2 -0.4015980000000  0.3987760000000  0.1902120000000 1.0   0.05
O      2 -0.4225170000000 -0.1352150000000 -0.0280860000000 1.0   0.04
O      2  0.0115170000000 -0.5122940000000 -0.1148460000000 1.0   0.04
O      2  0.0115540000000 -0.0474860000000 -0.2724250000000 1.0   0.05
O      2 -0.4015980000000 -0.3987760000000 -0.3097880000000 1.0   0.05
P      3 -0.2031560000000  0.2762560000000  0.3243700000000 1.0   0.02
P      3 -0.2031560000000 -0.2762560000000 -0.1756300000000 1.0   0.02
Fe     4  0.2912040000000 -0.2859500000000  0.1804750000000 1.0   3.85
Fe     4  0.2912040000000  0.2859500000000 -0.3195250000000 1.0   3.85
END
