TITL 2LFP-201124-024146-30fc81 -0.0280 140.768813 -6.07461919E+003 8.00000 8.11317 14 (Cmcm) n - 1
REM
REM Run started: Tue, 24 Nov 2020 03:15:19 +0000 in /lustre/scratch/uccabz1/launch_tmp/launcher_2020-11-24-02-41-38-029429
REM CASTEP 20.1 from code version af48c487+ pr-geom-scf-spinfix Tue Jun 2 15:39:59 2020 +0100
REM Functional Perdew Burke Ernzerhof Relativity Koelling-Harmon Dispersion off
REM Cut-off 300.0000 eV Grid scale 1.7500 Gmax 15.5288 1/A FBSC none
REM MP grid 4 4 3 Offset 0.000 0.000 0.000 No. kpts 12 Spacing 0.07
REM Total runtime: 2179.31 s
REM Overall efficiency: 68.7143 %
REM
REM 2LFP.cell (a815d5d25b9f25a0a111bfe3624e67be)
REM
REM compiler GCC version 4.9.2
REM options -cpp -iprefix /lustre/shared/ucl/apps/gcc/4.9.2/bin/../lib/gcc/x86_64-unknown-linux-gnu/4.9.2/ -mtune=corei7 -march=x86-64 -g -Og
REM COMMAND_LINE
REM seed -502264638 -135264325 248177257 -1168685365 -154828941 1793842432 -447033700 -1792010143 -1920852295 -780369242 -1344284398 1501757388
REM
REM P 3|1.8|4|5|5|30:31:32(qc=5)
REM O 2|1.5|12|13|15|20:21(qc=5)
REM Li 1|1.3|8|9|10|10U:20(qc=5)
REM Fe 3|2.2|2.0|1.0|8|9|10|40:41:32(qc=5)
REM Fe d:4.0 
REM
CELL 1.54180    5.03759    5.03759    6.05040   90.00000   90.00000  113.53647
LATT -1
SFAC Li O  P  Fe 
Li     1  0.3355160000000 -0.3355160000000 -0.0000000000000 1.0  -0.03
Li     1 -0.3355160000000  0.3355160000000  0.5000000000000 1.0  -0.03
O      2 -0.7512630000000 -0.2492340000000  0.2895400000000 1.0   0.03
O      2 -0.3084600000000 -0.2429830000000  0.4999040000000 1.0   0.05
O      2  0.7512630000000  0.2492340000000 -0.2104600000000 1.0   0.03
O      2  0.3084600000000  0.2429830000000 -0.0000960000000 1.0   0.05
O      2 -0.2492340000000 -0.7512630000000  0.2104600000000 1.0   0.03
O      2 -0.2429830000000 -0.3084600000000  0.0000960000000 1.0   0.05
O      2  0.2492340000000  0.7512630000000 -0.2895400000000 1.0   0.03
O      2  0.2429830000000  0.3084600000000 -0.4999040000000 1.0   0.05
P      3 -0.3511840000000  0.3511840000000 -0.0000000000000 1.0   0.02
P      3  0.3511840000000 -0.3511840000000  0.5000000000000 1.0   0.02
Fe     4 -0.0000930000000 -0.0000930000000 -0.2500000000000 1.0   3.84
Fe     4  0.0000930000000  0.0000930000000  0.2500000000000 1.0   3.84
END
