TITL 2LFP-201123-230315-7bd036 -0.0046 170.607370 -6.07454557E+003 8.00000 8.08900 14 (C2221) n - 1
REM
REM Run started: Mon, 23 Nov 2020 23:14:48 +0000 in /scratch/scratch/uccabz1/launch_tmp/launcher_2020-11-23-23-03-13-947060
REM CASTEP 19.11| from code version Version unavailable
REM Functional Perdew Burke Ernzerhof Relativity Koelling-Harmon Dispersion off
REM Cut-off 300.0000 eV Grid scale 1.7500 Gmax 15.5288 1/A FBSC none
REM MP grid 3 3 3 Offset 0.000 0.000 0.000 No. kpts 8 Spacing 0.07
REM Total runtime: 1062.15 s
REM Overall efficiency: 75 %
REM
REM 2LFP.cell (a815d5d25b9f25a0a111bfe3624e67be)
REM
REM compiler GCC version 4.9.2
REM options -cpp -iprefix /scratch/UCL/applications/gcc/4.9.2/bin/../lib/gcc/x86_64-unknown-linux-gnu/4.9.2/ -mtune=corei7 -march=x86-64 -g -O2
REM COMMAND_LINE
REM seed 1983832387 894235053 193861114 -1208334317 -731476718 751507683 1770828785 1823155339 1792679713 1183973597 167055496 -1920509459
REM
REM P 3|1.8|4|5|5|30:31:32(qc=5)
REM O 2|1.5|12|13|15|20:21(qc=5)
REM Li 1|1.3|8|9|10|10U:20(qc=5)
REM Fe 3|2.2|2.0|1.0|8|9|10|40:41:32(qc=5)
REM Fe d:4.0 
REM
CELL 1.54180    5.25881    5.25881    6.16914   90.00000   90.00000   89.85122
LATT -1
SFAC Li O  P  Fe 
Li     1 -0.3013130000000 -0.3013130000000  0.2500000000000 1.0  -0.05
Li     1  0.3013130000000  0.3013130000000 -0.2500000000000 1.0  -0.05
O      2  0.0955800000000  0.2459760000000 -0.4893100000000 1.0   0.03
O      2 -0.3262260000000  0.3045300000000 -0.2937480000000 1.0   0.03
O      2 -0.0955800000000 -0.2459760000000  0.0106900000000 1.0   0.03
O      2  0.3262260000000 -0.3045300000000  0.2062520000000 1.0   0.03
O      2  0.2459760000000  0.0955800000000 -0.0106900000000 1.0   0.03
O      2  0.3045300000000 -0.3262260000000 -0.2062520000000 1.0   0.03
O      2 -0.2459760000000 -0.0955800000000  0.4893100000000 1.0   0.03
O      2 -0.3045300000000  0.3262260000000  0.2937480000000 1.0   0.03
P      3  0.1954880000000 -0.1954880000000 -0.0000000000000 1.0   0.01
P      3 -0.1954880000000  0.1954880000000 -0.5000000000000 1.0   0.01
Fe     4  0.3076310000000  0.3076310000000  0.2500000000000 1.0   3.91
Fe     4 -0.3076310000000 -0.3076310000000 -0.2500000000000 1.0   3.91
END
