TITL 2LFP-201124-034440-a0abb9 -0.0130 157.616799 -6.07258026E+003 8.00000 8.15167 14 (P42/m) n - 1
REM
REM Run started: Tue, 24 Nov 2020 03:50:30 +0000 in /lustre/scratch/uccabz1/launch_tmp/launcher_2020-11-24-03-44-36-367240
REM CASTEP 20.1 from code version af48c487+ pr-geom-scf-spinfix Tue Jun 2 15:39:59 2020 +0100
REM Functional Perdew Burke Ernzerhof Relativity Koelling-Harmon Dispersion off
REM Cut-off 300.0000 eV Grid scale 1.7500 Gmax 15.5288 1/A FBSC none
REM MP grid 4 4 2 Offset 0.000 0.000 0.000 No. kpts 4 Spacing 0.07
REM Total runtime: 397.06 s
REM Overall efficiency: 65.4 %
REM
REM 2LFP.cell (a815d5d25b9f25a0a111bfe3624e67be)
REM
REM compiler GCC version 4.9.2
REM options -cpp -iprefix /lustre/shared/ucl/apps/gcc/4.9.2/bin/../lib/gcc/x86_64-unknown-linux-gnu/4.9.2/ -mtune=corei7 -march=x86-64 -g -Og
REM COMMAND_LINE
REM seed 83192946 -1061794585 -1160477024 -930038371 -650847677 1633206978 -1498659126 -327819096 918024737 -1980799954 1038765510 80049219
REM
REM P 3|1.8|4|5|5|30:31:32(qc=5)
REM O 2|1.5|12|13|15|20:21(qc=5)
REM Li 1|1.3|8|9|10|10U:20(qc=5)
REM Fe 3|2.2|2.0|1.0|8|9|10|40:41:32(qc=5)
REM Fe d:4.0 
REM
CELL 1.54180    4.18833    4.18833    8.98504   90.00000   90.00000   90.00000
LATT -1
SFAC Li O  P  Fe 
Li     1 -0.5000000000000  0.0000000000000  0.5010060000000 1.0  -0.06
Li     1 -0.0000000000000  0.5000000000000  0.0010060000000 1.0  -0.06
O      2 -0.2863150000000 -0.2888880000000 -0.1451710000000 1.0   0.06
O      2  0.2893720000000 -0.2854190000000 -0.3491110000000 1.0   0.06
O      2  0.2863150000000  0.2888880000000 -0.1451710000000 1.0   0.06
O      2 -0.2893720000000  0.2854190000000 -0.3491110000000 1.0   0.06
O      2 -0.2888880000000  0.2863150000000  0.3548290000000 1.0   0.06
O      2 -0.2854190000000 -0.2893720000000  0.1508890000000 1.0   0.06
O      2  0.2888880000000 -0.2863150000000  0.3548290000000 1.0   0.06
O      2  0.2854190000000  0.2893720000000  0.1508890000000 1.0   0.06
P      3  0.5000000000000 -0.5000000000000 -0.2472300000000 1.0   0.01
P      3 -0.5000000000000  0.5000000000000  0.2527700000000 1.0   0.01
Fe     4  0.5000000000000  0.0000000000000  0.0034420000000 1.0   3.81
Fe     4  0.0000000000000 -0.5000000000000 -0.4965580000000 1.0   3.81
END
