TITL 2LFP-201124-055139-7e3790 -0.0225 157.991172 -6.06945361E+003 -8.00000 8.10215 14 (P2) n - 1
REM
REM Run started: Tue, 24 Nov 2020 07:46:15 +0000 in /lustre/scratch/uccabz1/launch_tmp/launcher_2020-11-24-05-51-35-106858
REM CASTEP 20.1 from code version af48c487+ pr-geom-scf-spinfix Tue Jun 2 15:39:59 2020 +0100
REM Functional Perdew Burke Ernzerhof Relativity Koelling-Harmon Dispersion off
REM Cut-off 300.0000 eV Grid scale 1.7500 Gmax 15.5288 1/A FBSC none
REM MP grid 3 4 3 Offset 0.000 0.000 0.000 No. kpts 12 Spacing 0.07
REM Total runtime: 7166.71 s
REM Overall efficiency: 87.3 %
REM
REM 2LFP.cell (a815d5d25b9f25a0a111bfe3624e67be)
REM
REM compiler GCC version 4.9.2
REM options -cpp -iprefix /lustre/shared/ucl/apps/gcc/4.9.2/bin/../lib/gcc/x86_64-unknown-linux-gnu/4.9.2/ -mtune=corei7 -march=x86-64 -g -Og
REM COMMAND_LINE
REM seed 5037657 383153733 1336700046 1509737900 653956867 -854285752 -1771345794 -227175502 60347320 -863628612 -1170783400 -95758668
REM
REM P 3|1.8|4|5|5|30:31:32(qc=5)
REM O 2|1.5|12|13|15|20:21(qc=5)
REM Li 1|1.3|8|9|10|10U:20(qc=5)
REM Fe 3|2.2|2.0|1.0|8|9|10|40:41:32(qc=5)
REM Fe d:4.0 
REM
CELL 1.54180    5.46053    4.64822    6.57945  108.90320   90.00000   90.00000
LATT -1
SFAC Li O  P  Fe 
Li     1  0.0400540000000  0.4805610000000 -0.1959180000000 1.0   0.04
Li     1  0.0400540000000 -0.4805610000000  0.1959180000000 1.0   0.04
O      2  0.0641890000000  0.2312120000000  0.3454050000000 1.0  -0.03
O      2 -0.2110710000000 -0.2399640000000  0.2924270000000 1.0  -0.01
O      2 -0.4217700000000  0.2281120000000  0.2750550000000 1.0  -0.06
O      2  0.0641890000000 -0.2312120000000 -0.3454050000000 1.0  -0.03
O      2 -0.2110710000000  0.2399640000000 -0.2924270000000 1.0  -0.01
O      2 -0.4217700000000 -0.2281120000000 -0.2750550000000 1.0  -0.06
O      2 -0.1077210000000  0.0000000000000  0.0000000000000 1.0  -0.01
O      2  0.2716460000000  0.5000000000000  0.0000000000000 1.0  -0.09
P      3 -0.1752220000000  0.0569510000000  0.2538350000000 1.0  -0.01
P      3 -0.1752220000000 -0.0569510000000 -0.2538350000000 1.0  -0.01
Fe     4  0.3355510000000  0.0000000000000  0.0000000000000 1.0  -3.92
Fe     4  0.3689140000000  0.5000000000000  0.5000000000000 1.0  -3.86
END
