TITL 2LFP-201124-013502-40f1af 0.0451 154.754158 -6.07234317E+003 8.00000 8.07997 14 (C2221) n - 1
REM
REM Run started: Tue, 24 Nov 2020 02:15:41 +0000 in /lustre/scratch/uccabz1/launch_tmp/launcher_2020-11-24-01-35-00-118459
REM CASTEP 20.1 from code version af48c487+ pr-geom-scf-spinfix Tue Jun 2 15:39:59 2020 +0100
REM Functional Perdew Burke Ernzerhof Relativity Koelling-Harmon Dispersion off
REM Cut-off 300.0000 eV Grid scale 1.7500 Gmax 15.5288 1/A FBSC none
REM MP grid 4 4 2 Offset 0.000 0.000 0.000 No. kpts 6 Spacing 0.07
REM Total runtime: 2375.76 s
REM Overall efficiency: 70.8 %
REM
REM 2LFP.cell (a815d5d25b9f25a0a111bfe3624e67be)
REM
REM compiler GCC version 4.9.2
REM options -cpp -iprefix /lustre/shared/ucl/apps/gcc/4.9.2/bin/../lib/gcc/x86_64-unknown-linux-gnu/4.9.2/ -mtune=corei7 -march=x86-64 -g -Og
REM COMMAND_LINE
REM seed -1990236272 -271828869 -207700688 -2100383630 1678584282 1063038504 2086747669 373024653 405411278 -411380780 -139020960 -2052565023
REM
REM P 3|1.8|4|5|5|30:31:32(qc=5)
REM O 2|1.5|12|13|15|20:21(qc=5)
REM Li 1|1.3|8|9|10|10U:20(qc=5)
REM Fe 3|2.2|2.0|1.0|8|9|10|40:41:32(qc=5)
REM Fe d:4.0 
REM
CELL 1.54180    4.47639    4.47639    8.09224   90.00000   90.00000   72.62564
LATT -1
SFAC Li O  P  Fe 
Li     1 -0.1406010000000  0.1406010000000  0.2500000000000 1.0  -0.04
Li     1  0.1406010000000 -0.1406010000000 -0.2500000000000 1.0  -0.04
O      2 -0.3816930000000 -0.2799580000000 -0.2689630000000 1.0   0.05
O      2 -0.1939910000000  0.2098740000000 -0.0927660000000 1.0   0.05
O      2  0.3816930000000  0.2799580000000  0.2310370000000 1.0   0.05
O      2  0.1939910000000 -0.2098740000000  0.4072340000000 1.0   0.05
O      2  0.2799580000000  0.3816930000000 -0.2310370000000 1.0   0.05
O      2 -0.2098740000000  0.1939910000000 -0.4072340000000 1.0   0.05
O      2 -0.2799580000000 -0.3816930000000  0.2689630000000 1.0   0.05
O      2  0.2098740000000 -0.1939910000000  0.0927660000000 1.0   0.05
P      3 -0.3689300000000  0.3689300000000 -0.2500000000000 1.0   0.01
P      3  0.3689300000000 -0.3689300000000  0.2500000000000 1.0   0.01
Fe     4  0.2346100000000  0.2346100000000  0.0000000000000 1.0   3.84
Fe     4 -0.2346100000000 -0.2346100000000 -0.5000000000000 1.0   3.84
END
