TITL 2LFP-201123-221844-6d5dc7 0.0097 151.317343 -6.07389798E+003 8.00000 8.10597 14 (P21) n - 1
REM
REM Run started: Mon, 23 Nov 2020 22:52:54 +0000 in /scratch/scratch/uccabz1/launch_tmp/launcher_2020-11-23-22-18-42-685925
REM CASTEP 19.11| from code version Version unavailable
REM Functional Perdew Burke Ernzerhof Relativity Koelling-Harmon Dispersion off
REM Cut-off 300.0000 eV Grid scale 1.7500 Gmax 15.5288 1/A FBSC none
REM MP grid 3 3 3 Offset 0.000 0.000 0.000 No. kpts 10 Spacing 0.07
REM Total runtime: 2362.99 s
REM Overall efficiency: 77.5 %
REM
REM 2LFP.cell (a815d5d25b9f25a0a111bfe3624e67be)
REM
REM compiler GCC version 4.9.2
REM options -cpp -iprefix /scratch/UCL/applications/gcc/4.9.2/bin/../lib/gcc/x86_64-unknown-linux-gnu/4.9.2/ -mtune=corei7 -march=x86-64 -g -O2
REM COMMAND_LINE
REM seed 377588915 -1710465153 -850956145 -161802192 -677932527 -819067608 1492433751 -1051690264 632452059 878461894 532685464 1768200814
REM
REM P 3|1.8|4|5|5|30:31:32(qc=5)
REM O 2|1.5|12|13|15|20:21(qc=5)
REM Li 1|1.3|8|9|10|10U:20(qc=5)
REM Fe 3|2.2|2.0|1.0|8|9|10|40:41:32(qc=5)
REM Fe d:4.0 
REM
CELL 1.54180    5.04704    4.96546    6.06598   84.49403   90.00000   90.00000
LATT -1
SFAC Li O  P  Fe 
Li     1 -0.2134250000000 -0.2391790000000 -0.0319960000000 1.0  -0.03
Li     1  0.2865750000000  0.2391790000000  0.0319960000000 1.0  -0.03
O      2  0.0011840000000 -0.0924310000000 -0.3180570000000 1.0   0.04
O      2  0.4657080000000 -0.0338560000000 -0.1527170000000 1.0   0.03
O      2  0.1706110000000 -0.4026010000000  0.0103330000000 1.0   0.02
O      2  0.3547510000000 -0.4301450000000 -0.3822680000000 1.0   0.05
O      2 -0.4988160000000  0.0924310000000  0.3180570000000 1.0   0.04
O      2 -0.0342920000000  0.0338560000000  0.1527170000000 1.0   0.03
O      2 -0.3293890000000  0.4026010000000 -0.0103330000000 1.0   0.02
O      2 -0.1452490000000  0.4301450000000  0.3822680000000 1.0   0.05
P      3  0.2482190000000 -0.2378320000000 -0.2111220000000 1.0   0.01
P      3 -0.2517810000000  0.2378320000000  0.2111220000000 1.0   0.01
Fe     4  0.1751210000000 -0.2555130000000  0.3353350000000 1.0   3.89
Fe     4 -0.3248790000000  0.2555130000000 -0.3353350000000 1.0   3.89
END
