TITL 2LFP-201123-224156-d1cdcb -0.0063 142.969703 -6.06662109E+003 8.00000 8.22701 14 (Fdd2) n - 1
REM
REM Run started: Mon, 23 Nov 2020 23:51:52 +0000 in /scratch/scratch/uccabz1/launch_tmp/launcher_2020-11-23-22-41-54-538616
REM CASTEP 19.11| from code version Version unavailable
REM Functional Perdew Burke Ernzerhof Relativity Koelling-Harmon Dispersion off
REM Cut-off 300.0000 eV Grid scale 1.7500 Gmax 15.5288 1/A FBSC none
REM MP grid 4 3 3 Offset 0.000 0.000 0.000 No. kpts 18 Spacing 0.07
REM Total runtime: 5188.46 s
REM Overall efficiency: 96.3333 %
REM
REM 2LFP.cell (a815d5d25b9f25a0a111bfe3624e67be)
REM
REM compiler GCC version 4.9.2
REM options -cpp -iprefix /scratch/UCL/applications/gcc/4.9.2/bin/../lib/gcc/x86_64-unknown-linux-gnu/4.9.2/ -mtune=corei7 -march=x86-64 -g -O2
REM COMMAND_LINE
REM seed -27430 -1866620316 932907218 2062042808 -288407582 -1797644470 -580523664 1821862077 -472309857 -541121685 1001967125 1215534006
REM
REM P 3|1.8|4|5|5|30:31:32(qc=5)
REM O 2|1.5|12|13|15|20:21(qc=5)
REM Li 1|1.3|8|9|10|10U:20(qc=5)
REM Fe 3|2.2|2.0|1.0|8|9|10|40:41:32(qc=5)
REM Fe d:4.0 
REM
CELL 1.54180    5.81424    5.88424    5.61724   75.18559   58.83298   60.39277
LATT -1
SFAC Li O  P  Fe 
Li     1  0.4971080000000  0.0057840000000  0.0000000000000 1.0  -0.05
Li     1  0.2471080000000 -0.4942160000000 -0.5000000000000 1.0  -0.05
O      2  0.2124060000000 -0.2575260000000 -0.3145370000000 1.0   0.03
O      2 -0.2075970000000 -0.2445820000000  0.1035500000000 1.0   0.06
O      2  0.0451200000000 -0.2575260000000  0.3145370000000 1.0   0.03
O      2  0.4521800000000 -0.2445820000000 -0.1035500000000 1.0   0.06
O      2  0.1096570000000  0.2424740000000 -0.8145370000000 1.0   0.03
O      2  0.0986290000000  0.2554180000000 -0.3964500000000 1.0   0.06
O      2 -0.3521310000000  0.2424740000000  0.8145370000000 1.0   0.03
O      2 -0.3540470000000  0.2554180000000  0.3964500000000 1.0   0.06
P      3 -0.1175920000000  0.2351830000000  0.5000000000000 1.0   0.01
P      3  0.1324080000000 -0.2648170000000 -0.0000000000000 1.0   0.01
Fe     4 -0.4644520000000 -0.0710960000000  0.5000000000000 1.0   3.87
Fe     4 -0.2144520000000  0.4289040000000 -0.0000000000000 1.0   3.87
END
