TITL 2LFP-201124-020737-51e92d 0.0218 158.433803 -6.07282471E+003 8.00000 8.11542 14 (P21212) n - 1
REM
REM Run started: Tue, 24 Nov 2020 03:18:06 +0000 in /lustre/scratch/uccabz1/launch_tmp/launcher_2020-11-24-02-07-35-654156
REM CASTEP 20.1 from code version af48c487+ pr-geom-scf-spinfix Tue Jun 2 15:39:59 2020 +0100
REM Functional Perdew Burke Ernzerhof Relativity Koelling-Harmon Dispersion off
REM Cut-off 300.0000 eV Grid scale 1.7500 Gmax 15.5288 1/A FBSC none
REM MP grid 3 3 3 Offset 0.000 0.000 0.000 No. kpts 8 Spacing 0.07
REM Total runtime: 4614.72 s
REM Overall efficiency: 93.3 %
REM
REM 2LFP.cell (a815d5d25b9f25a0a111bfe3624e67be)
REM
REM compiler GCC version 4.9.2
REM options -cpp -iprefix /lustre/shared/ucl/apps/gcc/4.9.2/bin/../lib/gcc/x86_64-unknown-linux-gnu/4.9.2/ -mtune=corei7 -march=x86-64 -g -Og
REM COMMAND_LINE
REM seed 2017983505 1664242771 -16876930 -1477739890 -26867455 1998186676 -1720537389 330538962 -1698484119 -1682355309 1472403085 -935604599
REM
REM P 3|1.8|4|5|5|30:31:32(qc=5)
REM O 2|1.5|12|13|15|20:21(qc=5)
REM Li 1|1.3|8|9|10|10U:20(qc=5)
REM Fe 3|2.2|2.0|1.0|8|9|10|40:41:32(qc=5)
REM Fe d:4.0 
REM
CELL 1.54180    6.70052    4.73158    4.99728   90.00000   90.00000   90.00000
LATT -1
SFAC Li O  P  Fe 
Li     1 -0.1200860000000 -0.0000000000000 -0.0000000000000 1.0  -0.04
Li     1  0.1200860000000  0.5000000000000 -0.5000000000000 1.0  -0.04
O      2 -0.1330280000000  0.3533760000000 -0.2758780000000 1.0   0.03
O      2 -0.6143610000000  0.2271120000000 -0.1493940000000 1.0   0.07
O      2 -0.1330280000000 -0.3533760000000  0.2758780000000 1.0   0.03
O      2 -0.6143610000000 -0.2271120000000  0.1493940000000 1.0   0.07
O      2  0.1330280000000 -0.1466240000000 -0.2241220000000 1.0   0.03
O      2  0.6143610000000 -0.2728880000000 -0.3506060000000 1.0   0.07
O      2  0.1330280000000  0.1466240000000  0.2241220000000 1.0   0.03
O      2  0.6143610000000  0.2728880000000  0.3506060000000 1.0   0.07
P      3  0.2535930000000 -0.0000000000000 -0.0000000000000 1.0   0.01
P      3 -0.2535930000000  0.5000000000000 -0.5000000000000 1.0   0.01
Fe     4  0.4043110000000 -0.0000000000000  0.5000000000000 1.0   3.82
Fe     4 -0.4043110000000  0.5000000000000 -0.0000000000000 1.0   3.82
END
