TITL 2LFP-201124-012511-a56663 0.0203 164.287469 -6.07191318E+003 8.00000 8.12573 14 (Cm) n - 1
REM
REM Run started: Tue, 24 Nov 2020 03:03:32 +0000 in /lustre/scratch/uccabz1/launch_tmp/launcher_2020-11-24-01-25-05-662983
REM CASTEP 20.1 from code version af48c487+ pr-geom-scf-spinfix Tue Jun 2 15:39:59 2020 +0100
REM Functional Perdew Burke Ernzerhof Relativity Koelling-Harmon Dispersion off
REM Cut-off 300.0000 eV Grid scale 1.7500 Gmax 15.5288 1/A FBSC none
REM MP grid 4 3 3 Offset 0.000 0.000 0.000 No. kpts 18 Spacing 0.07
REM Total runtime: 6410.69 s
REM Overall efficiency: 85.25 %
REM
REM 2LFP.cell (a815d5d25b9f25a0a111bfe3624e67be)
REM
REM compiler GCC version 4.9.2
REM options -cpp -iprefix /lustre/shared/ucl/apps/gcc/4.9.2/bin/../lib/gcc/x86_64-unknown-linux-gnu/4.9.2/ -mtune=corei7 -march=x86-64 -g -Og
REM COMMAND_LINE
REM seed 454362683 1659031948 1517955178 -494882160 1942872935 1937804161 -1068156414 -260264781 -1995990969 -291805903 -139765699 -1114341454
REM
REM P 3|1.8|4|5|5|30:31:32(qc=5)
REM O 2|1.5|12|13|15|20:21(qc=5)
REM Li 1|1.3|8|9|10|10U:20(qc=5)
REM Fe 3|2.2|2.0|1.0|8|9|10|40:41:32(qc=5)
REM Fe d:4.0 
REM
CELL 1.54180    4.85912    5.97941    6.80951  115.29526  110.01771   91.88984
LATT -1
SFAC Li O  P  Fe 
Li     1 -0.3452330000000 -0.9418450000000 -0.5596800000000 1.0  -0.03
Li     1  0.2144470000000  0.6178360000000  0.5596800000000 1.0  -0.03
O      2 -0.7214430000000  0.4538560000000  0.2590100000000 1.0   0.03
O      2 -0.1854930000000  0.3889010000000  0.4276720000000 1.0   0.01
O      2 -0.2728190000000  0.7188750000000  0.2768790000000 1.0   0.04
O      2  0.0195470000000 -0.8051540000000 -0.2590100000000 1.0   0.03
O      2  0.3868360000000 -1.0387710000000 -0.4276720000000 1.0   0.01
O      2  0.4503020000000 -0.5580040000000 -0.2768790000000 1.0   0.04
O      2  0.1562760000000 -0.1575040000000 -0.0000000000000 1.0   0.27
O      2 -0.4297170000000  0.2525810000000 -0.0000000000000 1.0   0.01
P      3 -0.4037550000000  0.4713350000000  0.2646460000000 1.0   0.01
P      3  0.3315990000000 -0.7933120000000 -0.2646470000000 1.0   0.01
Fe     4 -0.0212340000000  0.1123240000000 -0.0000000000000 1.0   3.78
Fe     4 -0.1642060000000 -0.3341730000000 -0.0000000000000 1.0   3.83
END
