TITL 2LFP-201123-225208-a6ec5e -0.0325 173.013930 -6.07160217E+003 8.00000 8.15218 14 (C2) n - 1
REM
REM Run started: Mon, 23 Nov 2020 23:45:58 +0000 in /scratch/scratch/uccabz1/launch_tmp/launcher_2020-11-23-22-52-06-824270
REM CASTEP 19.11| from code version Version unavailable
REM Functional Perdew Burke Ernzerhof Relativity Koelling-Harmon Dispersion off
REM Cut-off 300.0000 eV Grid scale 1.7500 Gmax 15.5288 1/A FBSC none
REM MP grid 4 3 3 Offset 0.000 0.000 0.000 No. kpts 12 Spacing 0.07
REM Total runtime: 3537.64 s
REM Overall efficiency: 95.3333 %
REM
REM 2LFP.cell (a815d5d25b9f25a0a111bfe3624e67be)
REM
REM compiler GCC version 4.9.2
REM options -cpp -iprefix /scratch/UCL/applications/gcc/4.9.2/bin/../lib/gcc/x86_64-unknown-linux-gnu/4.9.2/ -mtune=corei7 -march=x86-64 -g -O2
REM COMMAND_LINE
REM seed -20865882 1577936871 -1391183217 -1268966841 -1734961621 -959130430 1242485324 1045418469 -818693649 616579033 -224046652 1084758687
REM
REM P 3|1.8|4|5|5|30:31:32(qc=5)
REM O 2|1.5|12|13|15|20:21(qc=5)
REM Li 1|1.3|8|9|10|10U:20(qc=5)
REM Fe 3|2.2|2.0|1.0|8|9|10|40:41:32(qc=5)
REM Fe d:4.0 
REM
CELL 1.54180    4.51789    6.27267    6.27267  102.90093   88.03963   88.03963
LATT -1
SFAC Li O  P  Fe 
Li     1 -0.5000000000000 -0.3234200000000  0.3234200000000 1.0  -0.04
Li     1  0.5000000000000 -0.0204340000000  0.0204340000000 1.0  -0.04
O      2  0.0140490000000 -0.4551090000000 -0.1944520000000 1.0   0.04
O      2  0.4175400000000 -0.2731260000000 -0.3701900000000 1.0   0.03
O      2  0.4881160000000 -0.3588060000000  0.0047690000000 1.0   0.02
O      2 -0.0140490000000  0.1944520000000  0.4551090000000 1.0   0.04
O      2 -0.4175400000000  0.3701900000000  0.2731260000000 1.0   0.03
O      2 -0.4881160000000 -0.0047690000000  0.3588060000000 1.0   0.02
O      2  0.0000000000000  0.0717730000000 -0.0717730000000 1.0   0.26
O      2 -0.5000000000000  0.3315580000000 -0.3315580000000 1.0   0.01
P      3  0.3434390000000 -0.4270070000000 -0.2169440000000 1.0   0.01
P      3 -0.3434390000000  0.2169440000000  0.4270070000000 1.0   0.01
Fe     4 -0.1624500000000  0.3639680000000 -0.0022280000000 1.0   3.81
Fe     4  0.1624500000000  0.0022280000000 -0.3639680000000 1.0   3.81
END
