TITL 2LFP-201124-054921-ad0f07 0.0164 158.863357 -6.07420309E+003 8.00000 8.13128 14 (C2221) n - 1
REM
REM Run started: Tue, 24 Nov 2020 06:13:33 +0000 in /scratch/scratch/uccabz1/launch_tmp/launcher_2020-11-24-05-49-14-221802
REM CASTEP 19.11| from code version Version unavailable
REM Functional Perdew Burke Ernzerhof Relativity Koelling-Harmon Dispersion off
REM Cut-off 300.0000 eV Grid scale 1.7500 Gmax 15.5288 1/A FBSC none
REM MP grid 3 3 3 Offset 0.000 0.000 0.000 No. kpts 8 Spacing 0.07
REM Total runtime: 1731.82 s
REM Overall efficiency: 92.3333 %
REM
REM 2LFP.cell (a815d5d25b9f25a0a111bfe3624e67be)
REM
REM compiler GCC version 4.9.2
REM options -cpp -iprefix /scratch/UCL/applications/gcc/4.9.2/bin/../lib/gcc/x86_64-unknown-linux-gnu/4.9.2/ -mtune=corei7 -march=x86-64 -g -O2
REM COMMAND_LINE
REM seed 116103806 925443576 1882634909 357201169 86645529 -154981292 1205063636 -956675695 -3961057 2017453448 -859932448 129370757
REM
REM P 3|1.8|4|5|5|30:31:32(qc=5)
REM O 2|1.5|12|13|15|20:21(qc=5)
REM Li 1|1.3|8|9|10|10U:20(qc=5)
REM Fe 3|2.2|2.0|1.0|8|9|10|40:41:32(qc=5)
REM Fe d:4.0 
REM
CELL 1.54180    4.97738    4.97738    6.50326   90.00000   90.00000   99.58834
LATT -1
SFAC Li O  P  Fe 
Li     1  0.3127270000000 -0.3127270000000  0.0000000000000 1.0  -0.05
Li     1 -0.3127270000000  0.3127270000000  0.5000000000000 1.0  -0.05
O      2  0.3069620000000  0.2804470000000 -0.4468570000000 1.0   0.04
O      2  0.1938880000000 -0.1472580000000 -0.2403880000000 1.0   0.04
O      2 -0.3069620000000 -0.2804470000000  0.0531430000000 1.0   0.04
O      2 -0.1938880000000  0.1472580000000  0.2596120000000 1.0   0.04
O      2  0.2804470000000  0.3069620000000 -0.0531430000000 1.0   0.04
O      2 -0.1472580000000  0.1938880000000 -0.2596120000000 1.0   0.04
O      2 -0.2804470000000 -0.3069620000000  0.4468570000000 1.0   0.04
O      2  0.1472580000000 -0.1938880000000  0.2403880000000 1.0   0.04
P      3  0.1563050000000  0.1563050000000 -0.2500000000000 1.0   0.01
P      3 -0.1563050000000 -0.1563050000000  0.2500000000000 1.0   0.01
Fe     4 -0.3143670000000  0.3143670000000  0.0000000000000 1.0   3.89
Fe     4  0.3143670000000 -0.3143670000000  0.5000000000000 1.0   3.89
END
