TITL 2LFP-201124-055415-772e36 0.0423 150.009161 -6.07318730E+003 8.00000 8.09730 14 (Pc) n - 1
REM
REM Run started: Tue, 24 Nov 2020 06:17:59 +0000 in /lustre/scratch/uccabz1/launch_tmp/launcher_2020-11-24-05-49-14-027680
REM CASTEP 20.1 from code version af48c487+ pr-geom-scf-spinfix Tue Jun 2 15:39:59 2020 +0100
REM Functional Perdew Burke Ernzerhof Relativity Koelling-Harmon Dispersion off
REM Cut-off 300.0000 eV Grid scale 1.7500 Gmax 15.5288 1/A FBSC none
REM MP grid 4 3 2 Offset 0.000 0.000 0.000 No. kpts 8 Spacing 0.07
REM Total runtime: 1737.02 s
REM Overall efficiency: 71.6667 %
REM
REM 2LFP.cell (a815d5d25b9f25a0a111bfe3624e67be)
REM
REM compiler GCC version 4.9.2
REM options -cpp -iprefix /lustre/shared/ucl/apps/gcc/4.9.2/bin/../lib/gcc/x86_64-unknown-linux-gnu/4.9.2/ -mtune=corei7 -march=x86-64 -g -Og
REM COMMAND_LINE
REM seed 1807075041 -621433377 -1604246017 -1799966638 394708788 922417419 -278662384 -1123391026 1692910877 196945474 -774004399 343853588
REM
REM P 3|1.8|4|5|5|30:31:32(qc=5)
REM O 2|1.5|12|13|15|20:21(qc=5)
REM Li 1|1.3|8|9|10|10U:20(qc=5)
REM Fe 3|2.2|2.0|1.0|8|9|10|40:41:32(qc=5)
REM Fe d:4.0 
REM
CELL 1.54180    4.07025    4.85485    7.59299   90.00000   88.82217   90.00000
LATT -1
SFAC Li O  P  Fe 
Li     1 -0.3958420000000 -0.2053410000000 -0.4121880000000 1.0  -0.04
Li     1  0.6041580000000  0.2053410000000  0.0878120000000 1.0  -0.04
O      2  0.4029490000000 -0.4698970000000  0.1725890000000 1.0   0.04
O      2  0.8339550000000 -0.4013270000000  0.4006450000000 1.0   0.03
O      2  0.8629760000000 -0.1140030000000  0.1140550000000 1.0   0.03
O      2  0.4410240000000 -0.0186860000000  0.3463010000000 1.0   0.04
O      2 -0.5970510000000  0.4698970000000 -0.3274110000000 1.0   0.04
O      2 -0.1660450000000  0.4013270000000 -0.0993550000000 1.0   0.03
O      2 -0.1370240000000  0.1140030000000 -0.3859450000000 1.0   0.03
O      2 -0.5589760000000  0.0186860000000 -0.1536990000000 1.0   0.04
P      3  0.6406310000000 -0.2531710000000  0.2549610000000 1.0   0.01
P      3 -0.3593690000000  0.2531710000000 -0.2450390000000 1.0   0.01
Fe     4  0.1682270000000  0.3015450000000  0.4246680000000 1.0   3.89
Fe     4  0.1682270000000 -0.3015450000000 -0.0753320000000 1.0   3.89
END
