TITL 2LFP-201124-023829-091986 -0.0538 167.305125 -6.07452884E+003 8.00000 8.15260 14 (Cc) n - 1
REM
REM Run started: Tue, 24 Nov 2020 04:51:31 +0000 in /scratch/scratch/uccabz1/launch_tmp/launcher_2020-11-24-02-38-28-156220
REM CASTEP 19.11| from code version Version unavailable
REM Functional Perdew Burke Ernzerhof Relativity Koelling-Harmon Dispersion off
REM Cut-off 300.0000 eV Grid scale 1.7500 Gmax 15.5288 1/A FBSC none
REM MP grid 4 4 2 Offset 0.000 0.000 0.000 No. kpts 16 Spacing 0.07
REM Total runtime: 8093.88 s
REM Overall efficiency: 94.6923 %
REM
REM 2LFP.cell (a815d5d25b9f25a0a111bfe3624e67be)
REM
REM compiler GCC version 4.9.2
REM options -cpp -iprefix /scratch/UCL/applications/gcc/4.9.2/bin/../lib/gcc/x86_64-unknown-linux-gnu/4.9.2/ -mtune=corei7 -march=x86-64 -g -O2
REM COMMAND_LINE
REM seed 9404433 -175555432 -2106341915 1829086640 -1436719458 2039266387 -8087713 -1681293311 1399459753 -2070570299 2047779667 1816114141
REM
REM P 3|1.8|4|5|5|30:31:32(qc=5)
REM O 2|1.5|12|13|15|20:21(qc=5)
REM Li 1|1.3|8|9|10|10U:20(qc=5)
REM Fe 3|2.2|2.0|1.0|8|9|10|40:41:32(qc=5)
REM Fe d:4.0 
REM
CELL 1.54180    4.73969    4.96846    8.67268   99.95220  111.24375   61.51178
LATT -1
SFAC Li O  P  Fe 
Li     1  0.2808810000000 -0.6226060000000 -0.2357230000000 1.0  -0.04
Li     1  0.1582750000000 -0.3773940000000  0.2642770000000 1.0  -0.04
O      2 -0.3897070000000  0.5604440000000  0.3762900000000 1.0   0.04
O      2  0.2321680000000  0.2727900000000  0.5419540000000 1.0   0.04
O      2 -0.1063590000000 -0.0206230000000  0.3743280000000 1.0   0.02
O      2  0.0702100000000  0.2659260000000  0.2379020000000 1.0   0.04
O      2 -0.3292630000000 -0.5604440000000 -0.1237100000000 1.0   0.04
O      2  0.0049580000000 -0.2727900000000  0.0419540000000 1.0   0.04
O      2 -0.6269830000000  0.0206230000000 -0.1256720000000 1.0   0.02
O      2 -0.1638650000000 -0.2659260000000 -0.2620980000000 1.0   0.04
P      3 -0.0551310000000  0.2686440000000  0.3813410000000 1.0   0.01
P      3 -0.2864870000000 -0.2686440000000 -0.1186590000000 1.0   0.01
Fe     4  0.0949690000000  0.0805750000000  0.0183610000000 1.0   3.89
Fe     4 -0.3244550000000  0.9194250000000 -0.4816390000000 1.0   3.89
END
