TITL 2LFP-201123-235609-725781 -0.0022 180.518095 -6.07366275E+003 8.00000 8.16830 14 (C2/c) n - 1
REM
REM Run started: Tue, 24 Nov 2020 00:32:58 +0000 in /lustre/scratch/uccabz1/launch_tmp/launcher_2020-11-23-23-56-04-274658
REM CASTEP 20.1 from code version af48c487+ pr-geom-scf-spinfix Tue Jun 2 15:39:59 2020 +0100
REM Functional Perdew Burke Ernzerhof Relativity Koelling-Harmon Dispersion off
REM Cut-off 300.0000 eV Grid scale 1.7500 Gmax 15.5288 1/A FBSC none
REM MP grid 4 4 2 Offset 0.000 0.000 0.000 No. kpts 10 Spacing 0.07
REM Total runtime: 2396.57 s
REM Overall efficiency: 79.875 %
REM
REM 2LFP.cell (a815d5d25b9f25a0a111bfe3624e67be)
REM
REM compiler GCC version 4.9.2
REM options -cpp -iprefix /lustre/shared/ucl/apps/gcc/4.9.2/bin/../lib/gcc/x86_64-unknown-linux-gnu/4.9.2/ -mtune=corei7 -march=x86-64 -g -Og
REM COMMAND_LINE
REM seed 527475149 857430397 1645331721 554531697 -1652753265 1840509863 1332767007 1052589535 -565369134 -1033195627 505168975 -1801592789
REM
REM P 3|1.8|4|5|5|30:31:32(qc=5)
REM O 2|1.5|12|13|15|20:21(qc=5)
REM Li 1|1.3|8|9|10|10U:20(qc=5)
REM Fe 3|2.2|2.0|1.0|8|9|10|40:41:32(qc=5)
REM Fe d:4.0 
REM
CELL 1.54180    5.07687    5.07687    8.93079  100.18526  100.18526  122.50981
LATT -1
SFAC Li O  P  Fe 
Li     1  0.5225630000000  0.4774370000000  0.2500000000000 1.0  -0.04
Li     1 -0.5225630000000 -0.4774370000000 -0.2500000000000 1.0  -0.04
O      2 -0.0324250000000 -0.2667530000000 -0.1556380000000 1.0   0.05
O      2 -0.3312600000000 -0.1787020000000 -0.3611820000000 1.0   0.05
O      2  0.2667530000000  0.0324250000000 -0.3443620000000 1.0   0.05
O      2  0.1787020000000  0.3312600000000 -0.1388180000000 1.0   0.05
O      2  0.0324250000000  0.2667530000000  0.1556380000000 1.0   0.05
O      2  0.3312600000000  0.1787020000000  0.3611820000000 1.0   0.05
O      2 -0.2667530000000 -0.0324250000000  0.3443620000000 1.0   0.05
O      2 -0.1787020000000 -0.3312600000000  0.1388180000000 1.0   0.05
P      3  0.0245430000000 -0.0245430000000 -0.2500000000000 1.0   0.03
P      3 -0.0245430000000  0.0245430000000  0.2500000000000 1.0   0.03
Fe     4  0.0000000000000 -0.5000000000000  0.0000000000000 1.0   3.82
Fe     4  0.5000000000000  0.0000000000000 -0.5000000000000 1.0   3.82
END
