TITL 2LFP-201124-015114-903761 -0.0723 151.787610 -6.07390291E+003 8.00000 8.13487 14 (P21) n - 1
REM
REM Run started: Tue, 24 Nov 2020 02:48:48 +0000 in /lustre/scratch/uccabz1/launch_tmp/launcher_2020-11-24-01-51-07-704539
REM CASTEP 20.1 from code version af48c487+ pr-geom-scf-spinfix Tue Jun 2 15:39:59 2020 +0100
REM Functional Perdew Burke Ernzerhof Relativity Koelling-Harmon Dispersion off
REM Cut-off 300.0000 eV Grid scale 1.7500 Gmax 15.5288 1/A FBSC none
REM MP grid 4 4 2 Offset 0.000 0.000 0.000 No. kpts 8 Spacing 0.07
REM Total runtime: 3457.25 s
REM Overall efficiency: 93.4444 %
REM
REM 2LFP.cell (a815d5d25b9f25a0a111bfe3624e67be)
REM
REM compiler GCC version 4.9.2
REM options -cpp -iprefix /lustre/shared/ucl/apps/gcc/4.9.2/bin/../lib/gcc/x86_64-unknown-linux-gnu/4.9.2/ -mtune=corei7 -march=x86-64 -g -Og
REM COMMAND_LINE
REM seed -1355704430 884769235 140004688 -1680452529 189644520 342135127 -924423546 1718129596 1109813591 1650263320 -1416239855 955922268
REM
REM P 3|1.8|4|5|5|30:31:32(qc=5)
REM O 2|1.5|12|13|15|20:21(qc=5)
REM Li 1|1.3|8|9|10|10U:20(qc=5)
REM Fe 3|2.2|2.0|1.0|8|9|10|40:41:32(qc=5)
REM Fe d:4.0 
REM
CELL 1.54180    4.58968    4.62598    7.16129   90.00000   93.34749   90.00000
LATT -1
SFAC Li O  P  Fe 
Li     1 -0.2779190000000  0.4731300000000  0.5094910000000 1.0  -0.03
Li     1  0.2779190000000 -0.0268700000000 -0.5094910000000 1.0  -0.03
O      2  0.2226000000000  0.1104360000000  0.2437930000000 1.0   0.02
O      2  0.3283660000000  0.5819290000000  0.4184680000000 1.0   0.02
O      2  0.2783240000000  0.5763440000000  0.0610930000000 1.0   0.06
O      2 -0.1624270000000  0.5108700000000  0.2557940000000 1.0   0.03
O      2 -0.2226000000000 -0.3895640000000 -0.2437930000000 1.0   0.02
O      2 -0.3283660000000  0.0819290000000 -0.4184680000000 1.0   0.02
O      2 -0.2783240000000  0.0763440000000 -0.0610930000000 1.0   0.06
O      2  0.1624270000000  0.0108700000000 -0.2557940000000 1.0   0.03
P      3  0.1670670000000  0.4412500000000  0.2449300000000 1.0   0.01
P      3 -0.1670670000000 -0.0587500000000 -0.2449300000000 1.0   0.01
Fe     4 -0.4035210000000 -0.1361450000000  0.1672220000000 1.0   3.88
Fe     4  0.4035210000000  0.3638550000000 -0.1672220000000 1.0   3.88
END
