TITL 4LFP_actual-201127-001854-da0208 0.0467 303.249396 -1.21437071E+004 16.0000 16.2245 28 (P2) n - 1
REM
REM Run started: Fri, 27 Nov 2020 05:24:49 +0000 in /lustre/scratch/uccabz1/launch_tmp/launcher_2020-11-27-00-18-50-025720
REM CASTEP 20.1 from code version af48c487+ pr-geom-scf-spinfix Tue Jun 2 15:39:59 2020 +0100
REM Functional Perdew Burke Ernzerhof Relativity Koelling-Harmon Dispersion off
REM Cut-off 300.0000 eV Grid scale 1.7500 Gmax 15.5288 1/A FBSC none
REM MP grid 3 2 2 Offset 0.000 0.000 0.000 No. kpts 4 Spacing 0.07
REM Total runtime: 18830.3 s
REM Overall efficiency: 78.8333 %
REM
REM 4LFP_actual.cell (cb690b6ff984803026f07b083c6867a4)
REM
REM compiler GCC version 4.9.2
REM options -cpp -iprefix /lustre/shared/ucl/apps/gcc/4.9.2/bin/../lib/gcc/x86_64-unknown-linux-gnu/4.9.2/ -mtune=corei7 -march=x86-64 -g -Og
REM COMMAND_LINE
REM seed -1507631219 1321813370 1830414360 -244158941 780433107 1660029745 2061653314 1445318639 -673380817 -1021289842 1976907854 -1521768028
REM
REM P 3|1.8|4|5|5|30:31:32(qc=5)
REM O 2|1.5|12|13|15|20:21(qc=5)
REM Li 1|1.3|8|9|10|10U:20(qc=5)
REM Fe 3|2.2|2.0|1.0|8|9|10|40:41:32(qc=5)
REM Fe d:4.0 
REM
CELL 1.54180    5.24085    7.40246    7.82230   87.82788   90.00000   90.00000
LATT -1
SFAC Li O  P  Fe 
Li     1  0.2312210000000  0.2421560000000 -0.2406460000000 1.0  -0.05
Li     1  0.2312210000000 -0.2421560000000  0.2406460000000 1.0  -0.05
Li     1 -0.4079520000000  0.3134280000000  0.3693850000000 1.0  -0.05
Li     1 -0.4079520000000 -0.3134280000000 -0.3693850000000 1.0  -0.05
O      2 -0.3994990000000  0.2366020000000 -0.1425010000000 1.0   0.04
O      2 -0.0918560000000  0.2620820000000 -0.4171300000000 1.0   0.03
O      2 -0.1923140000000 -0.0327640000000 -0.2809040000000 1.0   0.04
O      2 -0.5607640000000  0.1505650000000 -0.4214640000000 1.0   0.04
O      2 -0.3994990000000 -0.2366020000000  0.1425010000000 1.0   0.04
O      2 -0.0918560000000 -0.2620820000000  0.4171300000000 1.0   0.03
O      2 -0.1923140000000  0.0327640000000  0.2809040000000 1.0   0.04
O      2 -0.5607640000000 -0.1505650000000  0.4214640000000 1.0   0.04
O      2 -0.1202870000000  0.4040560000000  0.1865370000000 1.0   0.04
O      2  0.3199710000000  0.2530310000000  0.2322650000000 1.0   0.01
O      2  0.0686840000000  0.1896870000000 -0.0357750000000 1.0   0.03
O      2 -0.1202870000000 -0.4040560000000 -0.1865370000000 1.0   0.04
O      2  0.3199710000000 -0.2530310000000 -0.2322650000000 1.0   0.01
O      2  0.0686840000000 -0.1896870000000  0.0357750000000 1.0   0.03
O      2 -0.5538310000000 -0.5000000000000 -0.5000000000000 1.0   0.24
O      2  0.2537090000000 -0.5000000000000  0.0000000000000 1.0   0.03
P      3 -0.3114030000000  0.1576970000000 -0.3174900000000 1.0   0.01
P      3 -0.3114030000000 -0.1576970000000  0.3174900000000 1.0   0.01
P      3  0.1196270000000  0.3182980000000  0.1078850000000 1.0   0.00
P      3  0.1196270000000 -0.3182980000000 -0.1078850000000 1.0   0.00
Fe     4  0.1442230000000  0.0000000000000 -0.5000000000000 1.0   3.90
Fe     4 -0.2319860000000  0.0000000000000  0.0000000000000 1.0   3.87
Fe     4 -0.3652340000000  0.5000000000000  0.0000000000000 1.0   3.88
Fe     4  0.1029600000000 -0.5000000000000 -0.5000000000000 1.0   3.80
END
