TITL 4LFP_actual-201126-224202-202ac6 0.0132 298.503118 -1.21469289E+004 16.0000 16.2681 28 (P21) n - 1
REM
REM Run started: Fri, 27 Nov 2020 02:29:09 +0000 in /lustre/scratch/uccabz1/launch_tmp/launcher_2020-11-26-22-41-58-871502
REM CASTEP 20.1 from code version af48c487+ pr-geom-scf-spinfix Tue Jun 2 15:39:59 2020 +0100
REM Functional Perdew Burke Ernzerhof Relativity Koelling-Harmon Dispersion off
REM Cut-off 300.0000 eV Grid scale 1.7500 Gmax 15.5288 1/A FBSC none
REM MP grid 3 3 2 Offset 0.000 0.000 0.000 No. kpts 5 Spacing 0.07
REM Total runtime: 13543.6 s
REM Overall efficiency: 63.5 %
REM
REM 4LFP_actual.cell (cb690b6ff984803026f07b083c6867a4)
REM
REM compiler GCC version 4.9.2
REM options -cpp -iprefix /lustre/shared/ucl/apps/gcc/4.9.2/bin/../lib/gcc/x86_64-unknown-linux-gnu/4.9.2/ -mtune=corei7 -march=x86-64 -g -Og
REM COMMAND_LINE
REM seed -1077643563 -1555432418 -1229395193 -1542124336 -1491029885 1599449515 130524207 -1138637240 256551856 -1635018890 1952115460 -126465196
REM
REM P 3|1.8|4|5|5|30:31:32(qc=5)
REM O 2|1.5|12|13|15|20:21(qc=5)
REM Li 1|1.3|8|9|10|10U:20(qc=5)
REM Fe 3|2.2|2.0|1.0|8|9|10|40:41:32(qc=5)
REM Fe d:4.0 
REM
CELL 1.54180    5.15114    5.72554   10.12825   90.00000   90.00000   87.85278
LATT -1
SFAC Li O  P  Fe 
Li     1  0.2301540000000 -0.1509340000000  0.2979390000000 1.0  -0.03
Li     1 -0.2301540000000  0.1509340000000 -0.2020610000000 1.0  -0.03
Li     1 -0.2549360000000 -0.4861150000000  0.4197530000000 1.0  -0.03
Li     1  0.2549360000000  0.4861150000000 -0.0802470000000 1.0  -0.03
O      2 -0.4475760000000 -0.2055670000000  0.4263410000000 1.0   0.02
O      2 -0.4218900000000  0.2288700000000  0.4157470000000 1.0   0.03
O      2  0.0018760000000 -0.0095840000000  0.4428910000000 1.0   0.03
O      2 -0.2406800000000 -0.0377390000000  0.2260620000000 1.0   0.04
O      2  0.4475760000000  0.2055670000000 -0.0736590000000 1.0   0.02
O      2  0.4218900000000 -0.2288700000000 -0.0842530000000 1.0   0.03
O      2 -0.0018760000000  0.0095840000000 -0.0571090000000 1.0   0.03
O      2  0.2406800000000  0.0377390000000 -0.2739380000000 1.0   0.04
O      2 -0.2466420000000 -0.1417470000000 -0.3020320000000 1.0   0.03
O      2 -0.3867410000000 -0.5514470000000 -0.3417020000000 1.0   0.05
O      2  0.0759780000000 -0.4541280000000 -0.3909630000000 1.0   0.05
O      2 -0.0752100000000 -0.4804850000000 -0.1533710000000 1.0   0.03
O      2  0.2466420000000  0.1417470000000  0.1979680000000 1.0   0.03
O      2  0.3867410000000  0.5514470000000  0.1582980000000 1.0   0.05
O      2 -0.0759780000000  0.4541280000000  0.1090370000000 1.0   0.05
O      2  0.0752100000000  0.4804850000000  0.3466290000000 1.0   0.03
P      3 -0.2722750000000 -0.0044200000000  0.3788430000000 1.0   0.02
P      3  0.2722750000000  0.0044200000000 -0.1211570000000 1.0   0.02
P      3 -0.1582720000000 -0.4009310000000 -0.2941150000000 1.0   0.01
P      3  0.1582720000000  0.4009310000000  0.2058850000000 1.0   0.01
Fe     4 -0.2269810000000 -0.2633500000000  0.0102630000000 1.0   3.89
Fe     4  0.2269810000000  0.2633500000000  0.5102630000000 1.0   3.89
Fe     4 -0.3850780000000  0.2344070000000  0.1150690000000 1.0   3.85
Fe     4  0.3850780000000 -0.2344070000000 -0.3849310000000 1.0   3.85
END
