TITL 4LFP_actual-201126-224043-cccdc3 0.0484 297.253887 -1.21435664E+004 -16.0000 16.1971 28 (P-1) n - 1
REM
REM Run started: Fri, 27 Nov 2020 18:56:44 +0000 in /scratch/scratch/uccabz1/launch_tmp/launcher_2020-11-26-22-40-23-202777
REM CASTEP 19.11| from code version Version unavailable
REM Functional Perdew Burke Ernzerhof Relativity Koelling-Harmon Dispersion off
REM Cut-off 300.0000 eV Grid scale 1.7500 Gmax 15.5288 1/A FBSC none
REM MP grid 4 3 2 Offset 0.000 0.000 0.000 No. kpts 12 Spacing 0.07
REM Total runtime: 76099.8 s
REM Overall efficiency: 98 %
REM
REM 4LFP_actual.cell (cb690b6ff984803026f07b083c6867a4)
REM
REM compiler GCC version 4.9.2
REM options -cpp -iprefix /scratch/UCL/applications/gcc/4.9.2/bin/../lib/gcc/x86_64-unknown-linux-gnu/4.9.2/ -mtune=corei7 -march=x86-64 -g -O2
REM COMMAND_LINE
REM seed 160455829 2091449434 2077850932 -715321477 641895669 529933122 -1865629157 1969719756 1739269909 797311353 1427811459 -2128804451
REM
REM P 3|1.8|4|5|5|30:31:32(qc=5)
REM O 2|1.5|12|13|15|20:21(qc=5)
REM Li 1|1.3|8|9|10|10U:20(qc=5)
REM Fe 3|2.2|2.0|1.0|8|9|10|40:41:32(qc=5)
REM Fe d:4.0 
REM
CELL 1.54180    4.49163    6.90345   11.42032   58.09267   92.71376   84.55073
LATT -1
SFAC Li O  P  Fe 
Li     1  0.4796640000000  0.1540670000000  0.1091310000000 1.0   0.04
Li     1 -0.4796640000000 -0.1540670000000 -0.1091310000000 1.0   0.04
Li     1  0.5190620000000 -0.3670430000000  0.1319250000000 1.0   0.04
Li     1 -0.5190620000000  0.3670430000000 -0.1319250000000 1.0   0.04
O      2 -0.2372150000000 -0.3360730000000 -0.4376650000000 1.0  -0.05
O      2 -0.1258040000000 -0.7371580000000 -0.3358640000000 1.0  -0.02
O      2  0.3046440000000 -0.5284520000000 -0.3240910000000 1.0  -0.03
O      2 -0.0920750000000 -0.6067650000000 -0.1637420000000 1.0  -0.03
O      2  0.2372150000000  0.3360730000000  0.4376650000000 1.0  -0.05
O      2  0.1258040000000  0.7371580000000  0.3358640000000 1.0  -0.02
O      2 -0.3046440000000  0.5284520000000  0.3240910000000 1.0  -0.03
O      2  0.0920750000000  0.6067650000000  0.1637420000000 1.0  -0.03
O      2  0.0432510000000  0.1381880000000  0.1316860000000 1.0  -0.04
O      2  0.1283790000000  0.0494630000000  0.3823740000000 1.0  -0.03
O      2 -0.3643720000000  0.0064100000000  0.2929410000000 1.0  -0.02
O      2 -0.0432510000000 -0.1381880000000 -0.1316860000000 1.0  -0.04
O      2 -0.1283790000000 -0.0494630000000 -0.3823740000000 1.0  -0.03
O      2  0.3643720000000 -0.0064100000000 -0.2929410000000 1.0  -0.02
O      2 -0.5000000000000  0.5000000000000  0.0000000000000 1.0  -0.10
O      2 -0.5000000000000  0.0000000000000  0.0000000000000 1.0  -0.09
P      3 -0.0301370000000 -0.5350570000000 -0.3126420000000 1.0  -0.01
P      3  0.0301370000000  0.5350570000000  0.3126420000000 1.0  -0.01
P      3 -0.0286270000000 -0.0028240000000  0.2860360000000 1.0  -0.01
P      3  0.0286270000000  0.0028240000000 -0.2860360000000 1.0  -0.01
Fe     4 -0.5000000000000  0.0000000000000 -0.5000000000000 1.0  -3.85
Fe     4  0.0000000000000  0.0000000000000  0.0000000000000 1.0  -3.89
Fe     4  0.0000000000000  0.5000000000000  0.0000000000000 1.0  -3.89
Fe     4  0.5000000000000  0.5000000000000  0.5000000000000 1.0  -3.82
END
