TITL 4LFP_actual-201127-011413-461aeb -0.0309 299.991682 -1.21478860E+004 16.0000 16.2433 28 (P21212) n - 1
REM
REM Run started: Fri, 27 Nov 2020 06:19:47 +0000 in /lustre/scratch/uccabz1/launch_tmp/launcher_2020-11-27-01-13-58-178433
REM CASTEP 20.1 from code version af48c487+ pr-geom-scf-spinfix Tue Jun 2 15:39:59 2020 +0100
REM Functional Perdew Burke Ernzerhof Relativity Koelling-Harmon Dispersion off
REM Cut-off 300.0000 eV Grid scale 1.7500 Gmax 15.5288 1/A FBSC none
REM MP grid 3 3 2 Offset 0.000 0.000 0.000 No. kpts 4 Spacing 0.07
REM Total runtime: 18356.2 s
REM Overall efficiency: 79.2857 %
REM
REM 4LFP_actual.cell (cb690b6ff984803026f07b083c6867a4)
REM
REM compiler GCC version 4.9.2
REM options -cpp -iprefix /lustre/shared/ucl/apps/gcc/4.9.2/bin/../lib/gcc/x86_64-unknown-linux-gnu/4.9.2/ -mtune=corei7 -march=x86-64 -g -Og
REM COMMAND_LINE
REM seed -183067719 2029777753 -892203004 -501188159 2121322643 -2027211306 947965176 -512638581 -2046279514 -1858132623 -1765614512 1372140757
REM
REM P 3|1.8|4|5|5|30:31:32(qc=5)
REM O 2|1.5|12|13|15|20:21(qc=5)
REM Li 1|1.3|8|9|10|10U:20(qc=5)
REM Fe 3|2.2|2.0|1.0|8|9|10|40:41:32(qc=5)
REM Fe d:4.0 
REM
CELL 1.54180    5.04687    6.35566    9.35247   90.00000   90.00000   90.00000
LATT -1
SFAC Li O  P  Fe 
Li     1 -0.1601670000000  0.2828410000000  0.0101750000000 1.0  -0.04
Li     1 -0.1601670000000 -0.2828410000000 -0.0101750000000 1.0  -0.04
Li     1  0.1601670000000  0.2171590000000 -0.4898250000000 1.0  -0.04
Li     1  0.1601670000000 -0.2171590000000  0.4898250000000 1.0  -0.04
O      2  0.1445660000000 -0.5619280000000 -0.1368370000000 1.0   0.05
O      2  0.3009700000000 -0.3496300000000 -0.3501600000000 1.0   0.04
O      2  0.1758020000000 -0.1722940000000 -0.1044790000000 1.0   0.05
O      2  0.6048650000000 -0.3798930000000 -0.1451650000000 1.0   0.04
O      2  0.1445660000000  0.5619280000000  0.1368370000000 1.0   0.05
O      2  0.3009700000000  0.3496300000000  0.3501600000000 1.0   0.04
O      2  0.1758020000000  0.1722940000000  0.1044790000000 1.0   0.05
O      2  0.6048650000000  0.3798930000000  0.1451650000000 1.0   0.04
O      2 -0.1445660000000  0.0619280000000  0.3631630000000 1.0   0.05
O      2 -0.3009700000000 -0.1503700000000  0.1498400000000 1.0   0.04
O      2 -0.1758020000000 -0.3277060000000  0.3955210000000 1.0   0.05
O      2 -0.6048650000000 -0.1201070000000  0.3548350000000 1.0   0.04
O      2 -0.1445660000000 -0.0619280000000 -0.3631630000000 1.0   0.05
O      2 -0.3009700000000  0.1503700000000 -0.1498400000000 1.0   0.04
O      2 -0.1758020000000  0.3277060000000 -0.3955210000000 1.0   0.05
O      2 -0.6048650000000  0.1201070000000 -0.3548350000000 1.0   0.04
P      3  0.3072000000000 -0.3678170000000 -0.1842280000000 1.0   0.01
P      3  0.3072000000000  0.3678170000000  0.1842280000000 1.0   0.01
P      3 -0.3072000000000 -0.1321830000000  0.3157720000000 1.0   0.01
P      3 -0.3072000000000  0.1321830000000 -0.3157720000000 1.0   0.01
Fe     4  0.2544300000000  0.1388400000000 -0.1388340000000 1.0   3.86
Fe     4  0.2544300000000 -0.1388400000000  0.1388340000000 1.0   3.86
Fe     4 -0.2544300000000  0.3611600000000  0.3611660000000 1.0   3.86
Fe     4 -0.2544300000000 -0.3611600000000 -0.3611660000000 1.0   3.86
END
