TITL 4LFP-201124-120703-59f970 0.0746 125.257917 -6.06963350E+003 8.00000 8.09418 14 (P-1) n - 1
REM
REM Run started: Tue, 24 Nov 2020 13:07:18 +0000 in /lustre/scratch/uccabz1/launch_tmp/launcher_2020-11-24-12-06-58-351918
REM CASTEP 20.1 from code version af48c487+ pr-geom-scf-spinfix Tue Jun 2 15:39:59 2020 +0100
REM Functional Perdew Burke Ernzerhof Relativity Koelling-Harmon Dispersion off
REM Cut-off 300.0000 eV Grid scale 1.7500 Gmax 15.5288 1/A FBSC none
REM MP grid 7 3 2 Offset 0.000 0.000 0.000 No. kpts 21 Spacing 0.07
REM Total runtime: 3762.69 s
REM Overall efficiency: 87.625 %
REM
REM 4LFP.cell (a815d5d25b9f25a0a111bfe3624e67be)
REM
REM compiler GCC version 4.9.2
REM options -cpp -iprefix /lustre/shared/ucl/apps/gcc/4.9.2/bin/../lib/gcc/x86_64-unknown-linux-gnu/4.9.2/ -mtune=corei7 -march=x86-64 -g -Og
REM COMMAND_LINE
REM seed 1271245920 1581813800 1780696123 -2076890904 1758164685 1196770068 -1533942703 -631190983 -30053456 -464997604 -1461364826 1485860569
REM
REM P 3|1.8|4|5|5|30:31:32(qc=5)
REM O 2|1.5|12|13|15|20:21(qc=5)
REM Li 1|1.3|8|9|10|10U:20(qc=5)
REM Fe 3|2.2|2.0|1.0|8|9|10|40:41:32(qc=5)
REM Fe d:4.0 
REM
CELL 1.54180    2.74594    5.76940    9.41751   83.16083  107.66285  118.18204
LATT -1
SFAC Li O  P  Fe 
Li     1 -0.2741440000000  0.0398640000000  0.1601430000000 1.0  -0.02
Li     1  0.2741440000000 -0.0398640000000 -0.1601430000000 1.0  -0.02
O      2  0.8685730000000  0.2761550000000 -0.4050080000000 1.0   0.10
O      2  0.0003000000000 -0.1129940000000 -0.3867950000000 1.0   0.05
O      2  0.5519930000000 -0.2983910000000 -0.1403680000000 1.0   0.06
O      2  0.7301120000000  0.3164440000000 -0.0858150000000 1.0   0.03
O      2 -0.8685730000000 -0.2761550000000  0.4050080000000 1.0   0.10
O      2 -0.0003000000000  0.1129940000000  0.3867950000000 1.0   0.05
O      2 -0.5519930000000  0.2983910000000  0.1403680000000 1.0   0.06
O      2 -0.7301120000000 -0.3164440000000  0.0858150000000 1.0   0.03
P      3 -0.5000000000000  0.5000000000000  0.0000000000000 1.0   0.00
P      3  0.5000000000000  0.0000000000000 -0.5000000000000 1.0   0.02
Fe     4  0.6979200000000  0.5093010000000 -0.3070980000000 1.0   3.76
Fe     4 -0.6979200000000 -0.5093010000000  0.3070980000000 1.0   3.76
END
