TITL 4LFP-201124-084231-27e399 0.2700 145.120099 -6.07412770E+003 8.00000 8.11592 14 (Fdd2) n - 1
REM
REM Run started: Tue, 24 Nov 2020 11:57:36 +0000 in /scratch/scratch/uccabz1/launch_tmp/launcher_2020-11-24-08-42-28-033890
REM CASTEP 19.11| from code version Version unavailable
REM Functional Perdew Burke Ernzerhof Relativity Koelling-Harmon Dispersion off
REM Cut-off 300.0000 eV Grid scale 1.7500 Gmax 15.5288 1/A FBSC none
REM MP grid 4 4 4 Offset 0.000 0.000 0.000 No. kpts 15 Spacing 0.07
REM Total runtime: 13044.3 s
REM Overall efficiency: 93.6154 %
REM
REM 4LFP.cell (a815d5d25b9f25a0a111bfe3624e67be)
REM
REM compiler GCC version 4.9.2
REM options -cpp -iprefix /scratch/UCL/applications/gcc/4.9.2/bin/../lib/gcc/x86_64-unknown-linux-gnu/4.9.2/ -mtune=corei7 -march=x86-64 -g -O2
REM COMMAND_LINE
REM seed 1138776425 -1119513367 1910749237 1669142807 -1320834824 -2069742087 1791426829 1327106365 -828385473 -1093385767 -154582722 1241763792
REM
REM P 3|1.8|4|5|5|30:31:32(qc=5)
REM O 2|1.5|12|13|15|20:21(qc=5)
REM Li 1|1.3|8|9|10|10U:20(qc=5)
REM Fe 3|2.2|2.0|1.0|8|9|10|40:41:32(qc=5)
REM Fe d:4.0 
REM
CELL 1.54180    6.29003    6.29003    7.28914  133.91900  133.91900   52.58108
LATT -1
SFAC Li O  P  Fe 
Li     1 -0.4579890000000  0.0420110000000  0.0840220000000 1.0  -0.04
Li     1  0.2920110000000  0.2920110000000 -0.4159780000000 1.0  -0.04
O      2 -0.1266860000000 -0.3169480000000 -0.0947210000000 1.0   0.04
O      2 -0.4154140000000 -0.7434920000000 -1.0087430000000 1.0   0.02
O      2  0.0319650000000  0.2222280000000 -0.0947210000000 1.0   0.04
O      2 -0.5933290000000 -0.2652510000000 -1.0087430000000 1.0   0.02
O      2 -0.0669480000000 -0.3766860000000  0.4052790000000 1.0   0.04
O      2 -0.4934920000000 -0.6654140000000 -0.5087430000000 1.0   0.02
O      2  0.4722280000000  0.7819650000000  0.4052790000000 1.0   0.04
O      2 -0.0152510000000  0.1566710000000 -0.5087430000000 1.0   0.02
P      3 -0.4039960000000 -0.4039960000000  0.1920090000000 1.0   0.01
P      3 -0.1539960000000  0.3460040000000 -0.3079910000000 1.0   0.01
Fe     4 -0.0797550000000 -0.0797550000000 -0.1595100000000 1.0   3.90
Fe     4  0.1702450000000 -0.3297550000000  0.3404900000000 1.0   3.90
END
