TITL 4LFP_actual-201126-231956-79f803 0.0133 309.394519 -1.21458136E+004 16.0000 16.2275 28 (C2221) n - 1
REM
REM Run started: Fri, 27 Nov 2020 04:48:15 +0000 in /scratch/scratch/uccabz1/launch_tmp/launcher_2020-11-26-23-19-35-495209
REM CASTEP 19.11| from code version Version unavailable
REM Functional Perdew Burke Ernzerhof Relativity Koelling-Harmon Dispersion off
REM Cut-off 300.0000 eV Grid scale 1.7500 Gmax 15.5288 1/A FBSC none
REM MP grid 4 4 2 Offset 0.000 0.000 0.000 No. kpts 6 Spacing 0.07
REM Total runtime: 21358.1 s
REM Overall efficiency: 97.4444 %
REM
REM 4LFP_actual.cell (cb690b6ff984803026f07b083c6867a4)
REM
REM compiler GCC version 4.9.2
REM options -cpp -iprefix /scratch/UCL/applications/gcc/4.9.2/bin/../lib/gcc/x86_64-unknown-linux-gnu/4.9.2/ -mtune=corei7 -march=x86-64 -g -O2
REM COMMAND_LINE
REM seed 535700373 -667562165 -1319161868 1027640838 1856856302 2012840724 -720627312 892933359 567809091 1994763776 -1184820735 -1537547500
REM
REM P 3|1.8|4|5|5|30:31:32(qc=5)
REM O 2|1.5|12|13|15|20:21(qc=5)
REM Li 1|1.3|8|9|10|10U:20(qc=5)
REM Fe 3|2.2|2.0|1.0|8|9|10|40:41:32(qc=5)
REM Fe d:4.0 
REM
CELL 1.54180    5.01502    5.01502   13.61934   90.00000   90.00000  115.41061
LATT -1
SFAC Li O  P  Fe 
Li     1  0.2151960000000  0.3365820000000 -0.4503470000000 1.0  -0.03
Li     1 -0.2151960000000 -0.3365820000000  0.0496530000000 1.0  -0.03
Li     1  0.3365820000000  0.2151960000000 -0.0496530000000 1.0  -0.03
Li     1 -0.3365820000000 -0.2151960000000  0.4503470000000 1.0  -0.03
O      2  0.4831590000000 -0.0322770000000  0.5263170000000 1.0   0.03
O      2  0.0924670000000  0.0153290000000  0.4134310000000 1.0   0.03
O      2  0.5176940000000  0.5235710000000  0.3428100000000 1.0   0.02
O      2  0.7008720000000  0.0088000000000  0.2532940000000 1.0   0.04
O      2 -0.4831590000000  0.0322770000000  0.0263170000000 1.0   0.03
O      2 -0.0924670000000 -0.0153290000000 -0.0865690000000 1.0   0.03
O      2 -0.5176940000000 -0.5235710000000 -0.1571900000000 1.0   0.02
O      2 -0.7008720000000 -0.0088000000000 -0.2467060000000 1.0   0.04
O      2 -0.0322770000000  0.4831590000000 -0.0263170000000 1.0   0.03
O      2  0.0153290000000  0.0924670000000  0.0865690000000 1.0   0.03
O      2  0.5235710000000  0.5176940000000  0.1571900000000 1.0   0.02
O      2  0.0088000000000  0.7008720000000  0.2467060000000 1.0   0.04
O      2  0.0322770000000 -0.4831590000000 -0.5263170000000 1.0   0.03
O      2 -0.0153290000000 -0.0924670000000 -0.4134310000000 1.0   0.03
O      2 -0.5235710000000 -0.5176940000000 -0.3428100000000 1.0   0.02
O      2 -0.0088000000000 -0.7008720000000 -0.2532940000000 1.0   0.04
P      3 -0.1500780000000  0.1500780000000  0.0000000000000 1.0   0.02
P      3  0.1500780000000 -0.1500780000000  0.5000000000000 1.0   0.02
P      3 -0.3114050000000 -0.3114050000000  0.2500000000000 1.0   0.01
P      3  0.3114050000000  0.3114050000000 -0.2500000000000 1.0   0.01
Fe     4 -0.3457740000000 -0.0358950000000 -0.3344380000000 1.0   3.89
Fe     4  0.3457740000000  0.0358950000000  0.1655620000000 1.0   3.89
Fe     4 -0.0358950000000 -0.3457740000000 -0.1655620000000 1.0   3.89
Fe     4  0.0358950000000  0.3457740000000  0.3344380000000 1.0   3.89
END
