TITL 4LFP_actual-201126-214339-435652 0.0656 316.308564 -1.21420686E+004 17.0751 17.4446 28 (Pm) n - 1
REM
REM Run started: Fri, 27 Nov 2020 01:24:25 +0000 in /lustre/scratch/uccabz1/launch_tmp/launcher_2020-11-26-21-43-21-859325
REM CASTEP 20.1 from code version af48c487+ pr-geom-scf-spinfix Tue Jun 2 15:39:59 2020 +0100
REM Functional Perdew Burke Ernzerhof Relativity Koelling-Harmon Dispersion off
REM Cut-off 300.0000 eV Grid scale 1.7500 Gmax 15.5288 1/A FBSC none
REM MP grid 3 3 2 Offset 0.000 0.000 0.000 No. kpts 5 Spacing 0.07
REM Total runtime: 13804.1 s
REM Overall efficiency: 62.5 %
REM
REM 4LFP_actual.cell (cb690b6ff984803026f07b083c6867a4)
REM
REM compiler GCC version 4.9.2
REM options -cpp -iprefix /lustre/shared/ucl/apps/gcc/4.9.2/bin/../lib/gcc/x86_64-unknown-linux-gnu/4.9.2/ -mtune=corei7 -march=x86-64 -g -Og
REM COMMAND_LINE
REM seed 2071446828 2004058964 2043986256 1649937370 -630507763 -347322585 -188751392 653373609 -2145913112 -1328884156 216520849 351424231
REM
REM P 3|1.8|4|5|5|30:31:32(qc=5)
REM O 2|1.5|12|13|15|20:21(qc=5)
REM Li 1|1.3|8|9|10|10U:20(qc=5)
REM Fe 3|2.2|2.0|1.0|8|9|10|40:41:32(qc=5)
REM Fe d:4.0 
REM
CELL 1.54180    4.99612    6.38229    9.92328   90.00000   90.00000   91.52220
LATT -1
SFAC Li O  P  Fe 
Li     1 -0.2835620000000  0.1685940000000 -0.5000000000000 1.0  -0.03
Li     1  0.0408190000000  0.1567970000000  0.0000000000000 1.0  -0.03
Li     1 -0.4319850000000 -0.2927040000000  0.5000000000000 1.0  -0.03
Li     1  0.2378240000000 -0.3008640000000  0.0000000000000 1.0  -0.02
O      2 -0.4168410000000 -0.2916750000000  0.1356950000000 1.0   0.03
O      2 -0.3559160000000 -0.0751440000000  0.3507780000000 1.0   0.08
O      2  0.0239450000000 -0.0848820000000  0.1669190000000 1.0   0.10
O      2 -0.3954060000000  0.1042110000000  0.1273710000000 1.0   0.05
O      2 -0.4168410000000 -0.2916750000000 -0.1356950000000 1.0   0.03
O      2 -0.3559160000000 -0.0751440000000 -0.3507780000000 1.0   0.08
O      2  0.0239450000000 -0.0848820000000 -0.1669190000000 1.0   0.10
O      2 -0.3954060000000  0.1042110000000 -0.1273710000000 1.0   0.05
O      2  0.2607280000000  0.2767290000000  0.3125170000000 1.0   0.09
O      2 -0.2120590000000  0.4223360000000  0.3525830000000 1.0   0.01
O      2  0.2340810000000  0.6508600000000  0.3624490000000 1.0   0.09
O      2  0.2607280000000  0.2767290000000 -0.3125170000000 1.0   0.09
O      2 -0.2120590000000  0.4223360000000 -0.3525830000000 1.0   0.01
O      2  0.2340810000000  0.6508600000000 -0.3624490000000 1.0   0.09
O      2  0.2708480000000  0.4049250000000  0.0000000000000 1.0  -0.06
O      2  0.0726670000000  0.0310400000000  0.5000000000000 1.0   0.56
P      3 -0.2862710000000 -0.0914920000000  0.1948840000000 1.0   0.01
P      3 -0.2862710000000 -0.0914920000000 -0.1948840000000 1.0   0.01
P      3  0.0868680000000  0.4395040000000  0.3880180000000 1.0   0.02
P      3  0.0868680000000  0.4395040000000 -0.3880180000000 1.0   0.02
Fe     4 -0.4803770000000  0.3986780000000 -0.1597570000000 1.0   3.74
Fe     4 -0.4803770000000  0.3986780000000  0.1597570000000 1.0   3.74
Fe     4  0.2334310000000 -0.0407910000000  0.3368960000000 1.0   4.10
Fe     4  0.2334310000000 -0.0407910000000 -0.3368960000000 1.0   4.10
END
