TITL 4LFP-201124-101500-112c93 0.0180 157.522284 -6.07423921E+003 8.00000 8.11609 14 (P-1) n - 1
REM
REM Run started: Tue, 24 Nov 2020 10:48:23 +0000 in /lustre/scratch/uccabz1/launch_tmp/launcher_2020-11-24-10-14-58-582469
REM CASTEP 20.1 from code version af48c487+ pr-geom-scf-spinfix Tue Jun 2 15:39:59 2020 +0100
REM Functional Perdew Burke Ernzerhof Relativity Koelling-Harmon Dispersion off
REM Cut-off 300.0000 eV Grid scale 1.7500 Gmax 15.5288 1/A FBSC none
REM MP grid 3 3 3 Offset 0.000 0.000 0.000 No. kpts 14 Spacing 0.07
REM Total runtime: 2203.78 s
REM Overall efficiency: 91.2857 %
REM
REM 4LFP.cell (a815d5d25b9f25a0a111bfe3624e67be)
REM
REM compiler GCC version 4.9.2
REM options -cpp -iprefix /lustre/shared/ucl/apps/gcc/4.9.2/bin/../lib/gcc/x86_64-unknown-linux-gnu/4.9.2/ -mtune=corei7 -march=x86-64 -g -Og
REM COMMAND_LINE
REM seed -1443177719 1708383802 508044065 -1777555043 -126271064 1831388454 -1628455497 -1179612420 135094006 -608477621 104380669 227608836
REM
REM P 3|1.8|4|5|5|30:31:32(qc=5)
REM O 2|1.5|12|13|15|20:21(qc=5)
REM Li 1|1.3|8|9|10|10U:20(qc=5)
REM Fe 3|2.2|2.0|1.0|8|9|10|40:41:32(qc=5)
REM Fe d:4.0 
REM
CELL 1.54180    4.99673    5.08360    6.46845   79.64453   85.60454   77.23966
LATT -1
SFAC Li O  P  Fe 
Li     1 -0.2094990000000 -0.2831400000000  0.4808410000000 1.0  -0.03
Li     1  0.2094990000000  0.2831400000000 -0.4808410000000 1.0  -0.03
O      2  0.3432400000000  0.0854770000000  0.3053600000000 1.0   0.03
O      2 -0.0655500000000 -0.1012500000000  0.2177960000000 1.0   0.04
O      2  0.4236030000000 -0.3442330000000  0.1419000000000 1.0   0.05
O      2  0.2195430000000 -0.3469750000000  0.5179890000000 1.0   0.03
O      2 -0.3432400000000 -0.0854770000000 -0.3053600000000 1.0   0.03
O      2  0.0655500000000  0.1012500000000 -0.2177960000000 1.0   0.04
O      2 -0.4236030000000  0.3442330000000 -0.1419000000000 1.0   0.05
O      2 -0.2195430000000  0.3469750000000 -0.5179890000000 1.0   0.03
P      3  0.2341200000000 -0.1719940000000  0.2937670000000 1.0   0.02
P      3 -0.2341200000000  0.1719940000000 -0.2937670000000 1.0   0.02
Fe     4 -0.3277770000000  0.2640470000000  0.1798040000000 1.0   3.86
Fe     4  0.3277770000000 -0.2640470000000 -0.1798040000000 1.0   3.86
END
