TITL 4LFP-201124-092433-c97d3a 0.0043 146.460928 -6.06020119E+003 8.41023 8.70599 14 (P4bm) n - 1
REM
REM Run started: Tue, 24 Nov 2020 09:35:45 +0000 in /lustre/scratch/uccabz1/launch_tmp/launcher_2020-11-24-09-24-31-624539
REM CASTEP 20.1 from code version af48c487+ pr-geom-scf-spinfix Tue Jun 2 15:39:59 2020 +0100
REM Functional Perdew Burke Ernzerhof Relativity Koelling-Harmon Dispersion off
REM Cut-off 300.0000 eV Grid scale 1.7500 Gmax 15.5288 1/A FBSC none
REM MP grid 3 3 3 Offset 0.000 0.000 0.000 No. kpts 6 Spacing 0.07
REM Total runtime: 784.38 s
REM Overall efficiency: 71.1667 %
REM
REM 4LFP.cell (a815d5d25b9f25a0a111bfe3624e67be)
REM
REM compiler GCC version 4.9.2
REM options -cpp -iprefix /lustre/shared/ucl/apps/gcc/4.9.2/bin/../lib/gcc/x86_64-unknown-linux-gnu/4.9.2/ -mtune=corei7 -march=x86-64 -g -Og
REM COMMAND_LINE
REM seed -73984253 -758245877 1487982627 716233591 -2119942851 -717092428 949559057 -1544706990 -706473698 536921599 1440826554 426609452
REM
REM P 3|1.8|4|5|5|30:31:32(qc=5)
REM O 2|1.5|12|13|15|20:21(qc=5)
REM Li 1|1.3|8|9|10|10U:20(qc=5)
REM Fe 3|2.2|2.0|1.0|8|9|10|40:41:32(qc=5)
REM Fe d:4.0 
REM
CELL 1.54180    6.38580    4.78909    4.78909   90.00000   90.00000   90.00000
LATT -1
SFAC Li O  P  Fe 
Li     1  0.1400040000000 -0.0000000000000  0.0000000000000 1.0   0.01
Li     1  0.1401220000000  0.5000000000000  0.5000000000000 1.0   0.01
O      2  0.6114940000000  0.1973520000000  0.6973580000000 1.0   0.08
O      2  0.0173590000000  0.2491320000000  0.2508470000000 1.0   0.08
O      2  0.6114940000000 -0.1973520000000 -0.6973580000000 1.0   0.08
O      2  0.0173590000000 -0.2491320000000 -0.2508470000000 1.0   0.08
O      2  0.6114940000000 -0.6973580000000  0.1973520000000 1.0   0.08
O      2  0.0173590000000 -0.2508470000000  0.2491320000000 1.0   0.08
O      2  0.6114940000000  0.6973580000000 -0.1973520000000 1.0   0.08
O      2  0.0173590000000  0.2508470000000 -0.2491320000000 1.0   0.08
P      3 -0.4843450000000  0.5000000000000 -0.5000000000000 1.0   0.01
P      3 -0.4843500000000  0.0000000000000  0.0000000000000 1.0   0.01
Fe     4 -0.1201370000000  0.0000000000000 -0.5000000000000 1.0   3.87
Fe     4 -0.1201370000000  0.5000000000000  0.0000000000000 1.0   3.87
END
