TITL 4LFP-201124-074755-5bbfdc 0.0490 168.572044 -6.07283666E+003 8.00000 8.28133 14 (I-4m2) n - 1
REM
REM Run started: Tue, 24 Nov 2020 09:08:43 +0000 in /scratch/scratch/uccabz1/launch_tmp/launcher_2020-11-24-07-47-51-891349
REM CASTEP 19.11| from code version Version unavailable
REM Functional Perdew Burke Ernzerhof Relativity Koelling-Harmon Dispersion off
REM Cut-off 300.0000 eV Grid scale 1.7500 Gmax 15.5288 1/A FBSC none
REM MP grid 3 3 4 Offset 0.000 0.000 0.000 No. kpts 12 Spacing 0.07
REM Total runtime: 5341.24 s
REM Overall efficiency: 86.2222 %
REM
REM 4LFP.cell (a815d5d25b9f25a0a111bfe3624e67be)
REM
REM compiler GCC version 4.9.2
REM options -cpp -iprefix /scratch/UCL/applications/gcc/4.9.2/bin/../lib/gcc/x86_64-unknown-linux-gnu/4.9.2/ -mtune=corei7 -march=x86-64 -g -O2
REM COMMAND_LINE
REM seed 1720239689 -406973119 566424536 1788703160 -868681157 -1406283527 891559532 -969103111 1163892354 -657738763 -437338651 -1225154130
REM
REM P 3|1.8|4|5|5|30:31:32(qc=5)
REM O 2|1.5|12|13|15|20:21(qc=5)
REM Li 1|1.3|8|9|10|10U:20(qc=5)
REM Fe 3|2.2|2.0|1.0|8|9|10|40:41:32(qc=5)
REM Fe d:4.0 
REM
CELL 1.54180    6.09395    6.09395    6.25886  119.13216  119.13216   90.00000
LATT -1
SFAC Li O  P  Fe 
Li     1 -0.4634870000000  0.0365130000000  0.0730250000000 1.0  -0.04
Li     1 -0.0365130000000  0.4634870000000 -0.0730250000000 1.0  -0.04
O      2 -0.1066720000000 -0.3094610000000 -0.2107440000000 1.0   0.05
O      2  0.3561710000000 -0.3394500000000 -0.2836470000000 1.0   0.03
O      2 -0.1040720000000  0.0987170000000 -0.2107440000000 1.0   0.05
O      2 -0.6398180000000  0.0558030000000 -0.2836470000000 1.0   0.03
O      2 -0.0987170000000  0.1066720000000  0.2107440000000 1.0   0.05
O      2 -0.0558030000000 -0.3561710000000  0.2836470000000 1.0   0.03
O      2  0.3094610000000  0.1040720000000  0.2107440000000 1.0   0.05
O      2  0.3394500000000  0.6398180000000  0.2836470000000 1.0   0.03
P      3  0.2500000000000 -0.2500000000000  0.5000000000000 1.0   0.02
P      3 -0.0000000000000  0.0000000000000  0.0000000000000 1.0  -0.00
Fe     4 -0.2944200000000 -0.2944200000000  0.4111600000000 1.0   3.86
Fe     4  0.2944200000000  0.2944200000000 -0.4111600000000 1.0   3.86
END
