TITL 4LFP-201124-075315-34108b 0.0011 150.791501 -6.06536520E+003 7.99618 8.26268 14 (Pma2) n - 1
REM
REM Run started: Tue, 24 Nov 2020 08:09:42 +0000 in /lustre/scratch/uccabz1/launch_tmp/launcher_2020-11-24-07-53-06-547530
REM CASTEP 20.1 from code version af48c487+ pr-geom-scf-spinfix Tue Jun 2 15:39:59 2020 +0100
REM Functional Perdew Burke Ernzerhof Relativity Koelling-Harmon Dispersion off
REM Cut-off 300.0000 eV Grid scale 1.7500 Gmax 15.5288 1/A FBSC none
REM MP grid 5 4 2 Offset 0.000 0.000 0.000 No. kpts 6 Spacing 0.07
REM Total runtime: 1264.94 s
REM Overall efficiency: 88.1667 %
REM
REM 4LFP.cell (a815d5d25b9f25a0a111bfe3624e67be)
REM
REM compiler GCC version 4.9.2
REM options -cpp -iprefix /lustre/shared/ucl/apps/gcc/4.9.2/bin/../lib/gcc/x86_64-unknown-linux-gnu/4.9.2/ -mtune=corei7 -march=x86-64 -g -Og
REM COMMAND_LINE
REM seed -1419186023 -286215131 425435472 566521487 1344742032 -427882543 -1684549007 -181136145 1051147048 -525979099 -1954266419 -1239240608
REM
REM P 3|1.8|4|5|5|30:31:32(qc=5)
REM O 2|1.5|12|13|15|20:21(qc=5)
REM Li 1|1.3|8|9|10|10U:20(qc=5)
REM Fe 3|2.2|2.0|1.0|8|9|10|40:41:32(qc=5)
REM Fe d:4.0 
REM
CELL 1.54180    3.24579    4.53798   10.23749   90.00000   90.00000   90.00000
LATT -1
SFAC Li O  P  Fe 
Li     1  0.0000000000000 -0.4404230000000  0.0000000000000 1.0  -0.03
Li     1  0.0000000000000 -0.4404230000000 -0.5000000000000 1.0  -0.03
O      2 -0.0142330000000  0.1434320000000 -0.3626510000000 1.0   0.11
O      2  0.3374110000000  0.6954500000000 -0.3625600000000 1.0   0.06
O      2  0.0142330000000  0.1434320000000  0.3626510000000 1.0   0.11
O      2 -0.3374110000000  0.6954500000000  0.3625600000000 1.0   0.06
O      2  0.0142330000000  0.1434320000000  0.1373490000000 1.0   0.11
O      2 -0.3374110000000  0.6954500000000  0.1374400000000 1.0   0.06
O      2 -0.0142330000000  0.1434320000000 -0.1373490000000 1.0   0.11
O      2  0.3374110000000  0.6954500000000 -0.1374400000000 1.0   0.06
P      3  0.1788640000000 -0.0806470000000 -0.2500000000000 1.0  -0.04
P      3 -0.1788640000000 -0.0806470000000  0.2500000000000 1.0  -0.04
Fe     4  0.4404860000000  0.3520570000000  0.2500000000000 1.0   3.72
Fe     4 -0.4404860000000  0.3520570000000 -0.2500000000000 1.0   3.72
END
