TITL 4LFP-201124-144230-446306 -0.0131 127.120723 -6.06979842E+003 8.00000 8.10198 14 (P-1) n - 1
REM
REM Run started: Tue, 24 Nov 2020 15:51:40 +0000 in /lustre/scratch/uccabz1/launch_tmp/launcher_2020-11-24-14-42-28-303053
REM CASTEP 20.1 from code version af48c487+ pr-geom-scf-spinfix Tue Jun 2 15:39:59 2020 +0100
REM Functional Perdew Burke Ernzerhof Relativity Koelling-Harmon Dispersion off
REM Cut-off 300.0000 eV Grid scale 1.7500 Gmax 15.5288 1/A FBSC none
REM MP grid 4 3 3 Offset 0.000 0.000 0.000 No. kpts 18 Spacing 0.07
REM Total runtime: 4549.44 s
REM Overall efficiency: 83.2222 %
REM
REM 4LFP.cell (a815d5d25b9f25a0a111bfe3624e67be)
REM
REM compiler GCC version 4.9.2
REM options -cpp -iprefix /lustre/shared/ucl/apps/gcc/4.9.2/bin/../lib/gcc/x86_64-unknown-linux-gnu/4.9.2/ -mtune=corei7 -march=x86-64 -g -Og
REM COMMAND_LINE
REM seed 1663782457 -1734708884 -358642841 549406914 -2122227511 -806229664 -2048091518 837523789 1632103148 -1253627805 -789399145 187207519
REM
REM P 3|1.8|4|5|5|30:31:32(qc=5)
REM O 2|1.5|12|13|15|20:21(qc=5)
REM Li 1|1.3|8|9|10|10U:20(qc=5)
REM Fe 3|2.2|2.0|1.0|8|9|10|40:41:32(qc=5)
REM Fe d:4.0 
REM
CELL 1.54180    4.88828    5.75974    5.40393   89.89415   85.55222   57.03502
LATT -1
SFAC Li O  P  Fe 
Li     1  0.4434470000000 -0.4151960000000  0.2234380000000 1.0  -0.04
Li     1 -0.4434470000000  0.4151960000000 -0.2234380000000 1.0  -0.04
O      2 -0.2784010000000  0.6872530000000 -0.2358480000000 1.0   0.03
O      2 -0.1297190000000  0.2857120000000 -0.4934270000000 1.0   0.08
O      2  0.2694910000000  0.3013260000000 -0.2700050000000 1.0   0.04
O      2 -0.1339110000000  0.2902240000000  0.0129270000000 1.0   0.06
O      2  0.2784010000000 -0.6872530000000  0.2358480000000 1.0   0.03
O      2  0.1297190000000 -0.2857120000000  0.4934270000000 1.0   0.08
O      2 -0.2694910000000 -0.3013260000000  0.2700050000000 1.0   0.04
O      2  0.1339110000000 -0.2902240000000 -0.0129270000000 1.0   0.06
P      3  0.0000000000000  0.5000000000000  0.0000000000000 1.0   0.01
P      3  0.0000000000000  0.5000000000000 -0.5000000000000 1.0   0.01
Fe     4  0.1979430000000 -0.0432520000000 -0.2808650000000 1.0   3.81
Fe     4 -0.1979430000000  0.0432520000000  0.2808650000000 1.0   3.81
END
