TITL 4LFP-201124-094817-9faf2d 0.0346 145.389348 -6.07397303E+003 8.00000 8.19267 14 (Fdd2) n - 1
REM
REM Run started: Tue, 24 Nov 2020 11:35:38 +0000 in /lustre/scratch/uccabz1/launch_tmp/launcher_2020-11-24-09-48-13-123451
REM CASTEP 20.1 from code version af48c487+ pr-geom-scf-spinfix Tue Jun 2 15:39:59 2020 +0100
REM Functional Perdew Burke Ernzerhof Relativity Koelling-Harmon Dispersion off
REM Cut-off 300.0000 eV Grid scale 1.7500 Gmax 15.5288 1/A FBSC none
REM MP grid 4 4 4 Offset 0.000 0.000 0.000 No. kpts 15 Spacing 0.07
REM Total runtime: 7259.06 s
REM Overall efficiency: 90.5556 %
REM
REM 4LFP.cell (a815d5d25b9f25a0a111bfe3624e67be)
REM
REM compiler GCC version 4.9.2
REM options -cpp -iprefix /lustre/shared/ucl/apps/gcc/4.9.2/bin/../lib/gcc/x86_64-unknown-linux-gnu/4.9.2/ -mtune=corei7 -march=x86-64 -g -Og
REM COMMAND_LINE
REM seed 1722099755 452743876 -46906628 -549233255 1739421766 -537920350 1970776934 -1153417933 2028335358 448704512 -1829867337 1357516140
REM
REM P 3|1.8|4|5|5|30:31:32(qc=5)
REM O 2|1.5|12|13|15|20:21(qc=5)
REM Li 1|1.3|8|9|10|10U:20(qc=5)
REM Fe 3|2.2|2.0|1.0|8|9|10|40:41:32(qc=5)
REM Fe d:4.0 
REM
CELL 1.54180    6.23441    6.23441    5.43227  103.47448  103.47448  126.43682
LATT -1
SFAC Li O  P  Fe 
Li     1  0.2222840000000  0.2222840000000  0.4445680000000 1.0  -0.04
Li     1  0.4722840000000 -0.0277160000000 -0.0554320000000 1.0  -0.04
O      2 -0.7126430000000 -0.3685810000000 -0.8862610000000 1.0   0.05
O      2 -0.8239990000000 -0.4777400000000 -0.4777740000000 1.0   0.03
O      2 -0.1736180000000 -0.5176800000000 -0.8862610000000 1.0   0.05
O      2  0.3462260000000 -0.0000340000000 -0.4777740000000 1.0   0.03
O      2 -0.1185810000000  0.0373570000000 -0.3862610000000 1.0   0.05
O      2 -0.2277400000000 -0.0739990000000  0.0222260000000 1.0   0.03
O      2 -0.2676800000000 -0.4236180000000 -0.3862610000000 1.0   0.05
O      2  0.2499660000000  0.0962260000000  0.0222260000000 1.0   0.03
P      3 -0.0870620000000 -0.0870620000000 -0.1741230000000 1.0   0.01
P      3  0.1629380000000 -0.3370620000000 -0.6741230000000 1.0   0.01
Fe     4 -0.4111020000000 -0.4111020000000 -0.8222030000000 1.0   3.88
Fe     4 -0.1611020000000  0.3388980000000  0.6777970000000 1.0   3.88
END
