TITL 4LFP-201124-114635-d1d11a -0.0529 168.434135 -6.07483896E+003 8.00000 8.11484 14 (P2) n - 1
REM
REM Run started: Tue, 24 Nov 2020 12:29:06 +0000 in /lustre/scratch/uccabz1/launch_tmp/launcher_2020-11-24-11-46-32-909325
REM CASTEP 20.1 from code version af48c487+ pr-geom-scf-spinfix Tue Jun 2 15:39:59 2020 +0100
REM Functional Perdew Burke Ernzerhof Relativity Koelling-Harmon Dispersion off
REM Cut-off 300.0000 eV Grid scale 1.7500 Gmax 15.5288 1/A FBSC none
REM MP grid 3 4 3 Offset 0.000 0.000 0.000 No. kpts 12 Spacing 0.07
REM Total runtime: 2975.38 s
REM Overall efficiency: 74.875 %
REM
REM 4LFP.cell (a815d5d25b9f25a0a111bfe3624e67be)
REM
REM compiler GCC version 4.9.2
REM options -cpp -iprefix /lustre/shared/ucl/apps/gcc/4.9.2/bin/../lib/gcc/x86_64-unknown-linux-gnu/4.9.2/ -mtune=corei7 -march=x86-64 -g -Og
REM COMMAND_LINE
REM seed -2093753874 2021074733 -1151186434 312005715 1009439498 -530517554 1245725561 -232188738 1724890450 571046300 -822908430 1239415509
REM
REM P 3|1.8|4|5|5|30:31:32(qc=5)
REM O 2|1.5|12|13|15|20:21(qc=5)
REM Li 1|1.3|8|9|10|10U:20(qc=5)
REM Fe 3|2.2|2.0|1.0|8|9|10|40:41:32(qc=5)
REM Fe d:4.0 
REM
CELL 1.54180    4.98242    4.85298    8.45993  124.57264   90.00000   90.00000
LATT -1
SFAC Li O  P  Fe 
Li     1 -0.1611600000000 -0.2513060000000  0.2577070000000 1.0  -0.02
Li     1 -0.1611600000000  0.2513060000000 -0.2577070000000 1.0  -0.02
O      2  0.5231210000000 -0.0509560000000 -0.3709030000000 1.0   0.04
O      2  0.0087600000000  0.0728320000000 -0.1229280000000 1.0   0.04
O      2  0.6505820000000  0.3155870000000  0.1273200000000 1.0   0.04
O      2  0.1468230000000  0.3079130000000 -0.3793670000000 1.0   0.04
O      2  0.5231210000000  0.0509560000000  0.3709030000000 1.0   0.04
O      2  0.0087600000000 -0.0728320000000  0.1229280000000 1.0   0.04
O      2  0.6505820000000 -0.3155870000000 -0.1273200000000 1.0   0.04
O      2  0.1468230000000 -0.3079130000000  0.3793670000000 1.0   0.04
P      3  0.3366350000000  0.0000000000000 -0.5000000000000 1.0   0.01
P      3 -0.1715880000000  0.0000000000000  0.0000000000000 1.0   0.01
Fe     4  0.3246680000000 -0.2353700000000 -0.2380520000000 1.0   3.85
Fe     4  0.3246680000000  0.2353700000000  0.2380520000000 1.0   3.85
END
