TITL 4LFP_actual-201126-142338-732e71 0.0014 336.386707 -1.21487176E+004 16.0000 16.3423 28 (P-1) n - 1
REM
REM Run started: Thu, 26 Nov 2020 18:10:37 +0000 in /lustre/scratch/uccabz1/launch_tmp/launcher_2020-11-26-14-23-27-168310
REM CASTEP 20.1 from code version af48c487+ pr-geom-scf-spinfix Tue Jun 2 15:39:59 2020 +0100
REM Functional Perdew Burke Ernzerhof Relativity Koelling-Harmon Dispersion off
REM Cut-off 300.0000 eV Grid scale 1.7500 Gmax 15.5288 1/A FBSC none
REM MP grid 4 2 2 Offset 0.000 0.000 0.000 No. kpts 8 Spacing 0.07
REM Total runtime: 15360.7 s
REM Overall efficiency: 76.8889 %
REM
REM 4LFP_actual.cell (cb690b6ff984803026f07b083c6867a4)
REM
REM compiler GCC version 4.9.2
REM options -cpp -iprefix /lustre/shared/ucl/apps/gcc/4.9.2/bin/../lib/gcc/x86_64-unknown-linux-gnu/4.9.2/ -mtune=corei7 -march=x86-64 -g -Og
REM COMMAND_LINE
REM seed -887718621 -831449868 901739898 -1515012158 -137503960 1853389579 123787284 1683915108 -977023365 -424828495 -294145685 655495937
REM
REM P 3|1.8|4|5|5|30:31:32(qc=5)
REM O 2|1.5|12|13|15|20:21(qc=5)
REM Li 1|1.3|8|9|10|10U:20(qc=5)
REM Fe 3|2.2|2.0|1.0|8|9|10|40:41:32(qc=5)
REM Fe d:4.0 
REM
CELL 1.54180    4.89567    9.63158    9.04165  118.64471   94.07083  110.19128
LATT -1
SFAC Li O  P  Fe 
Li     1 -0.3789270000000  0.1415640000000 -0.5417390000000 1.0  -0.02
Li     1  0.3789270000000 -0.1415640000000  0.5417390000000 1.0  -0.02
Li     1  0.2114200000000  0.3777870000000  0.4405580000000 1.0  -0.02
Li     1 -0.2114200000000 -0.3777870000000 -0.4405580000000 1.0  -0.02
O      2  0.1132710000000 -0.3012240000000  0.3173720000000 1.0   0.05
O      2  0.3625220000000 -0.3996170000000  0.0773520000000 1.0   0.06
O      2  0.0751010000000 -0.2159280000000  0.0937520000000 1.0   0.04
O      2  0.5916860000000 -0.0835560000000  0.3218640000000 1.0   0.03
O      2 -0.1132710000000  0.3012240000000 -0.3173720000000 1.0   0.05
O      2 -0.3625220000000  0.3996170000000 -0.0773520000000 1.0   0.06
O      2 -0.0751010000000  0.2159280000000 -0.0937520000000 1.0   0.04
O      2 -0.5916860000000  0.0835560000000 -0.3218640000000 1.0   0.03
O      2  0.4381330000000 -0.4359870000000 -0.3254670000000 1.0   0.04
O      2  0.1785520000000 -0.2372230000000 -0.3023020000000 1.0   0.02
O      2  0.6421550000000 -0.1257380000000 -0.0533760000000 1.0   0.04
O      2  0.6855720000000 -0.1791320000000 -0.3535180000000 1.0   0.04
O      2 -0.4381330000000  0.4359870000000  0.3254670000000 1.0   0.04
O      2 -0.1785520000000  0.2372230000000  0.3023020000000 1.0   0.02
O      2 -0.6421550000000  0.1257380000000  0.0533760000000 1.0   0.04
O      2 -0.6855720000000  0.1791320000000  0.3535180000000 1.0   0.04
P      3  0.2821320000000 -0.2452730000000  0.1988330000000 1.0   0.01
P      3 -0.2821320000000  0.2452730000000 -0.1988330000000 1.0   0.01
P      3  0.4798770000000 -0.2410140000000 -0.2485060000000 1.0   0.01
P      3 -0.4798770000000  0.2410140000000  0.2485060000000 1.0   0.01
Fe     4  0.3264830000000 -0.5477150000000 -0.1819320000000 1.0   3.84
Fe     4 -0.3264830000000  0.5477150000000  0.1819320000000 1.0   3.84
Fe     4  0.0949610000000  0.0243440000000 -0.1822020000000 1.0   3.85
Fe     4 -0.0949610000000 -0.0243440000000  0.1822020000000 1.0   3.85
END
