TITL 4LFP-201124-130608-50bd8d -0.0392 156.755656 -6.07347782E+003 8.00000 8.12410 14 (P21) n - 1
REM
REM Run started: Tue, 24 Nov 2020 14:52:00 +0000 in /lustre/scratch/uccabz1/launch_tmp/launcher_2020-11-24-13-06-06-757399
REM CASTEP 20.1 from code version af48c487+ pr-geom-scf-spinfix Tue Jun 2 15:39:59 2020 +0100
REM Functional Perdew Burke Ernzerhof Relativity Koelling-Harmon Dispersion off
REM Cut-off 300.0000 eV Grid scale 1.7500 Gmax 15.5288 1/A FBSC none
REM MP grid 4 4 3 Offset 0.000 0.000 0.000 No. kpts 16 Spacing 0.07
REM Total runtime: 7374.76 s
REM Overall efficiency: 95.2222 %
REM
REM 4LFP.cell (a815d5d25b9f25a0a111bfe3624e67be)
REM
REM compiler GCC version 4.9.2
REM options -cpp -iprefix /lustre/shared/ucl/apps/gcc/4.9.2/bin/../lib/gcc/x86_64-unknown-linux-gnu/4.9.2/ -mtune=corei7 -march=x86-64 -g -Og
REM COMMAND_LINE
REM seed -1162408060 -1782127639 2046404035 624207686 -318688093 1998577513 -641174211 -934172295 -1734892528 -271897106 -227867538 -1955771037
REM
REM P 3|1.8|4|5|5|30:31:32(qc=5)
REM O 2|1.5|12|13|15|20:21(qc=5)
REM Li 1|1.3|8|9|10|10U:20(qc=5)
REM Fe 3|2.2|2.0|1.0|8|9|10|40:41:32(qc=5)
REM Fe d:4.0 
REM
CELL 1.54180    5.56243    6.37309    6.07155   90.00000   90.00000  133.25609
LATT -1
SFAC Li O  P  Fe 
Li     1  0.4776190000000  0.3616310000000  0.4911750000000 1.0  -0.05
Li     1 -0.4776190000000 -0.3616310000000 -0.0088250000000 1.0  -0.05
O      2 -0.1631320000000  0.0441460000000 -0.4949890000000 1.0   0.06
O      2  0.3071660000000  0.4159810000000 -0.2490530000000 1.0   0.01
O      2 -0.1376070000000  0.4299700000000 -0.3289920000000 1.0   0.05
O      2 -0.2979610000000  0.0225420000000 -0.0997020000000 1.0   0.04
O      2  0.1631320000000 -0.0441460000000  0.0050110000000 1.0   0.06
O      2 -0.3071660000000 -0.4159810000000  0.2509470000000 1.0   0.01
O      2  0.1376070000000 -0.4299700000000  0.1710080000000 1.0   0.05
O      2  0.2979610000000 -0.0225420000000  0.4002980000000 1.0   0.04
P      3 -0.0578490000000  0.2392110000000 -0.2920220000000 1.0   0.01
P      3  0.0578490000000 -0.2392110000000  0.2079780000000 1.0   0.01
Fe     4  0.2404950000000 -0.1350890000000 -0.2764960000000 1.0   3.88
Fe     4 -0.2404950000000  0.1350890000000  0.2235040000000 1.0   3.88
END
