TITL 4LFP-201124-124212-630d30 -0.0214 153.537602 -6.07424201E+003 8.00000 8.12361 14 (P-1) n - 1
REM
REM Run started: Tue, 24 Nov 2020 16:13:32 +0000 in /lustre/scratch/uccabz1/launch_tmp/launcher_2020-11-24-12-42-08-714984
REM CASTEP 20.1 from code version af48c487+ pr-geom-scf-spinfix Tue Jun 2 15:39:59 2020 +0100
REM Functional Perdew Burke Ernzerhof Relativity Koelling-Harmon Dispersion off
REM Cut-off 300.0000 eV Grid scale 1.7500 Gmax 15.5288 1/A FBSC none
REM MP grid 4 4 3 Offset 0.000 0.000 0.000 No. kpts 24 Spacing 0.07
REM Total runtime: 13144.3 s
REM Overall efficiency: 95.7273 %
REM
REM 4LFP.cell (a815d5d25b9f25a0a111bfe3624e67be)
REM
REM compiler GCC version 4.9.2
REM options -cpp -iprefix /lustre/shared/ucl/apps/gcc/4.9.2/bin/../lib/gcc/x86_64-unknown-linux-gnu/4.9.2/ -mtune=corei7 -march=x86-64 -g -Og
REM COMMAND_LINE
REM seed 1422132765 -725236981 -1005640359 -1594169952 -284876751 494825921 1931248809 -17364827 -547286608 982288071 -1822843478 649585564
REM
REM P 3|1.8|4|5|5|30:31:32(qc=5)
REM O 2|1.5|12|13|15|20:21(qc=5)
REM Li 1|1.3|8|9|10|10U:20(qc=5)
REM Fe 3|2.2|2.0|1.0|8|9|10|40:41:32(qc=5)
REM Fe d:4.0 
REM
CELL 1.54180    5.01444    5.45307    6.97442   79.96952   83.63492   54.85075
LATT -1
SFAC Li O  P  Fe 
Li     1  0.3649850000000 -0.1825290000000  0.2638540000000 1.0  -0.03
Li     1 -0.3649850000000  0.1825290000000 -0.2638540000000 1.0  -0.03
O      2 -0.3935710000000 -0.1668830000000  0.8418970000000 1.0   0.04
O      2 -0.9627650000000  0.1458850000000  0.7104760000000 1.0   0.05
O      2 -0.4838860000000 -0.2590550000000  0.5208890000000 1.0   0.05
O      2 -0.6968940000000 -0.4184580000000  0.8205180000000 1.0   0.04
O      2  0.3935710000000  0.1668830000000 -0.8418970000000 1.0   0.04
O      2  0.9627650000000 -0.1458850000000 -0.7104760000000 1.0   0.05
O      2  0.4838860000000  0.2590550000000 -0.5208890000000 1.0   0.05
O      2  0.6968940000000  0.4184580000000 -0.8205180000000 1.0   0.04
P      3 -0.6361780000000 -0.1754640000000  0.7261640000000 1.0   0.01
P      3  0.6361780000000  0.1754640000000 -0.7261640000000 1.0   0.01
Fe     4 -1.0000000000000 -0.5000000000000  1.0000000000000 1.0   3.84
Fe     4  0.0000000000000  0.5000000000000 -0.5000000000000 1.0   3.84
END
