TITL 4LFP-201124-140228-153bd5 0.0042 151.973332 -6.07366723E+003 8.00000 8.12100 14 (P-1) n - 1
REM
REM Run started: Tue, 24 Nov 2020 16:39:51 +0000 in /lustre/scratch/uccabz1/launch_tmp/launcher_2020-11-24-14-02-25-820328
REM CASTEP 20.1 from code version af48c487+ pr-geom-scf-spinfix Tue Jun 2 15:39:59 2020 +0100
REM Functional Perdew Burke Ernzerhof Relativity Koelling-Harmon Dispersion off
REM Cut-off 300.0000 eV Grid scale 1.7500 Gmax 15.5288 1/A FBSC none
REM MP grid 4 3 4 Offset 0.000 0.000 0.000 No. kpts 24 Spacing 0.07
REM Total runtime: 9983.95 s
REM Overall efficiency: 95.4 %
REM
REM 4LFP.cell (a815d5d25b9f25a0a111bfe3624e67be)
REM
REM compiler GCC version 4.9.2
REM options -cpp -iprefix /lustre/shared/ucl/apps/gcc/4.9.2/bin/../lib/gcc/x86_64-unknown-linux-gnu/4.9.2/ -mtune=corei7 -march=x86-64 -g -Og
REM COMMAND_LINE
REM seed 1269221279 -1088904234 28732232 371014977 -1575662350 -1783339236 -1914696777 1149979832 924596031 1683545045 -195337979 587673617
REM
REM P 3|1.8|4|5|5|30:31:32(qc=5)
REM O 2|1.5|12|13|15|20:21(qc=5)
REM Li 1|1.3|8|9|10|10U:20(qc=5)
REM Fe 3|2.2|2.0|1.0|8|9|10|40:41:32(qc=5)
REM Fe d:4.0 
REM
CELL 1.54180    5.61543    6.45986    5.21050   85.82918   54.17543   92.50624
LATT -1
SFAC Li O  P  Fe 
Li     1 -0.4898970000000 -0.2831850000000 -0.4040330000000 1.0  -0.03
Li     1  0.4898970000000  0.2831850000000  0.4040330000000 1.0  -0.03
O      2 -0.1756060000000  0.2617360000000  0.4129840000000 1.0   0.03
O      2  0.2712970000000  0.5225950000000 -0.0096100000000 1.0   0.03
O      2  0.3314510000000  0.1556280000000  0.1666420000000 1.0   0.05
O      2  0.1552100000000  0.1983160000000 -0.1790260000000 1.0   0.04
O      2  0.1756060000000 -0.2617360000000 -0.4129840000000 1.0   0.03
O      2 -0.2712970000000 -0.5225950000000  0.0096100000000 1.0   0.03
O      2 -0.3314510000000 -0.1556280000000 -0.1666420000000 1.0   0.05
O      2 -0.1552100000000 -0.1983160000000  0.1790260000000 1.0   0.04
P      3  0.1418720000000  0.2945960000000  0.0970270000000 1.0   0.01
P      3 -0.1418720000000 -0.2945960000000 -0.0970270000000 1.0   0.01
Fe     4 -0.2015640000000  0.1728710000000 -0.1815110000000 1.0   3.87
Fe     4  0.2015640000000 -0.1728710000000  0.1815110000000 1.0   3.87
END
