TITL 4LFP-201124-115154-d762da -0.0129 175.518462 -6.07299929E+003 8.00000 8.15103 14 (Cm) n - 1
REM
REM Run started: Tue, 24 Nov 2020 12:34:42 +0000 in /lustre/scratch/uccabz1/launch_tmp/launcher_2020-11-24-11-51-51-871990
REM CASTEP 20.1 from code version af48c487+ pr-geom-scf-spinfix Tue Jun 2 15:39:59 2020 +0100
REM Functional Perdew Burke Ernzerhof Relativity Koelling-Harmon Dispersion off
REM Cut-off 300.0000 eV Grid scale 1.7500 Gmax 15.5288 1/A FBSC none
REM MP grid 4 3 3 Offset 0.000 0.000 0.000 No. kpts 12 Spacing 0.07
REM Total runtime: 3054.58 s
REM Overall efficiency: 75.125 %
REM
REM 4LFP.cell (a815d5d25b9f25a0a111bfe3624e67be)
REM
REM compiler GCC version 4.9.2
REM options -cpp -iprefix /lustre/shared/ucl/apps/gcc/4.9.2/bin/../lib/gcc/x86_64-unknown-linux-gnu/4.9.2/ -mtune=corei7 -march=x86-64 -g -Og
REM COMMAND_LINE
REM seed -1368084165 -242714369 330086519 -1973523292 305785331 -15186327 -1596923239 -2030234333 2017696826 970366743 -321342345 -841113889
REM
REM P 3|1.8|4|5|5|30:31:32(qc=5)
REM O 2|1.5|12|13|15|20:21(qc=5)
REM Li 1|1.3|8|9|10|10U:20(qc=5)
REM Fe 3|2.2|2.0|1.0|8|9|10|40:41:32(qc=5)
REM Fe d:4.0 
REM
CELL 1.54180    4.77127    6.26941    6.26941  102.57431  100.22019  100.22019
LATT -1
SFAC Li O  P  Fe 
Li     1  0.6712280000000 -0.0401410000000 -0.0401410000000 1.0  -0.01
Li     1 -0.4099070000000  0.3261640000000  0.3261640000000 1.0  -0.05
O      2 -0.2410050000000 -0.0479340000000  0.6744080000000 1.0   0.05
O      2 -0.2961810000000  0.0290450000000  0.3018730000000 1.0   0.03
O      2 -0.4768290000000 -0.3810710000000  0.3286760000000 1.0   0.05
O      2 -0.7689500000000 -0.1123340000000  0.4207330000000 1.0   0.07
O      2 -0.2410050000000  0.6744080000000 -0.0479340000000 1.0   0.05
O      2 -0.2961810000000  0.3018730000000  0.0290450000000 1.0   0.03
O      2 -0.4768290000000  0.3286760000000 -0.3810710000000 1.0   0.05
O      2 -0.7689500000000  0.4207330000000 -0.1123340000000 1.0   0.07
P      3 -0.4387430000000 -0.1265070000000  0.4368800000000 1.0  -0.00
P      3 -0.4387430000000  0.4368800000000 -0.1265070000000 1.0  -0.00
Fe     4  0.0864040000000 -0.4159930000000  0.1603500000000 1.0   3.83
Fe     4  0.0864040000000  0.1603500000000 -0.4159930000000 1.0   3.83
END
