TITL 4LFP-201124-075150-20f062 -0.0247 158.013011 -6.06902748E+003 8.00000 8.17596 14 (Pm) n - 1
REM
REM Run started: Tue, 24 Nov 2020 08:30:39 +0000 in /lustre/scratch/uccabz1/launch_tmp/launcher_2020-11-24-07-51-48-664723
REM CASTEP 20.1 from code version af48c487+ pr-geom-scf-spinfix Tue Jun 2 15:39:59 2020 +0100
REM Functional Perdew Burke Ernzerhof Relativity Koelling-Harmon Dispersion off
REM Cut-off 300.0000 eV Grid scale 1.7500 Gmax 15.5288 1/A FBSC none
REM MP grid 3 4 2 Offset 0.000 0.000 0.000 No. kpts 6 Spacing 0.07
REM Total runtime: 2623.85 s
REM Overall efficiency: 75.4286 %
REM
REM 4LFP.cell (a815d5d25b9f25a0a111bfe3624e67be)
REM
REM compiler GCC version 4.9.2
REM options -cpp -iprefix /lustre/shared/ucl/apps/gcc/4.9.2/bin/../lib/gcc/x86_64-unknown-linux-gnu/4.9.2/ -mtune=corei7 -march=x86-64 -g -Og
REM COMMAND_LINE
REM seed 680104772 -1464824232 -1014305811 1389644832 -1810636354 1083448301 -20269403 -536277456 367514440 -935458434 -998118512 -830367833
REM
REM P 3|1.8|4|5|5|30:31:32(qc=5)
REM O 2|1.5|12|13|15|20:21(qc=5)
REM Li 1|1.3|8|9|10|10U:20(qc=5)
REM Fe 3|2.2|2.0|1.0|8|9|10|40:41:32(qc=5)
REM Fe d:4.0 
REM
CELL 1.54180    5.14927    4.07291    8.14627   90.00000   90.00000  112.35049
LATT -1
SFAC Li O  P  Fe 
Li     1 -0.2811960000000  0.3039270000000  0.1947260000000 1.0  -0.06
Li     1 -0.2811960000000  0.3039270000000 -0.1947260000000 1.0  -0.06
O      2  0.0308720000000 -0.4845790000000  0.3338530000000 1.0   0.04
O      2  0.3356790000000  0.1155150000000  0.2090020000000 1.0   0.06
O      2 -0.1656170000000 -0.0993080000000  0.1904360000000 1.0   0.07
O      2  0.0308720000000 -0.4845790000000 -0.3338530000000 1.0   0.04
O      2  0.3356790000000  0.1155150000000 -0.2090020000000 1.0   0.06
O      2 -0.1656170000000 -0.0993080000000 -0.1904360000000 1.0   0.07
O      2 -0.1842890000000 -0.1309200000000 -0.5000000000000 1.0   0.09
O      2  0.2764370000000  0.0908280000000 -0.5000000000000 1.0   0.03
P      3  0.0727410000000 -0.0857700000000  0.3272490000000 1.0   0.01
P      3  0.0727410000000 -0.0857700000000 -0.3272490000000 1.0   0.01
Fe     4  0.1141310000000  0.0530460000000  0.0000000000000 1.0   3.78
Fe     4 -0.3065730000000  0.2909670000000  0.5000000000000 1.0   3.86
END
