TITL 4LFP-201124-115333-78c126 0.0299 135.802032 -6.05956558E+003 8.32332 8.62582 14 (Amm2) n - 1
REM
REM Run started: Tue, 24 Nov 2020 12:09:55 +0000 in /scratch/scratch/uccabz1/launch_tmp/launcher_2020-11-24-11-53-31-193112
REM CASTEP 19.11| from code version Version unavailable
REM Functional Perdew Burke Ernzerhof Relativity Koelling-Harmon Dispersion off
REM Cut-off 300.0000 eV Grid scale 1.7500 Gmax 15.5288 1/A FBSC none
REM MP grid 4 3 3 Offset 0.000 0.000 0.000 No. kpts 12 Spacing 0.07
REM Total runtime: 1052.24 s
REM Overall efficiency: 67.8333 %
REM
REM 4LFP.cell (a815d5d25b9f25a0a111bfe3624e67be)
REM
REM compiler GCC version 4.9.2
REM options -cpp -iprefix /scratch/UCL/applications/gcc/4.9.2/bin/../lib/gcc/x86_64-unknown-linux-gnu/4.9.2/ -mtune=corei7 -march=x86-64 -g -O2
REM COMMAND_LINE
REM seed -1175719549 1930661981 -151944289 1143700803 516226662 903339730 1408810730 1989978633 -1777211644 -1024513074 -1535060605 -208036112
REM
REM P 3|1.8|4|5|5|30:31:32(qc=5)
REM O 2|1.5|12|13|15|20:21(qc=5)
REM Li 1|1.3|8|9|10|10U:20(qc=5)
REM Fe 3|2.2|2.0|1.0|8|9|10|40:41:32(qc=5)
REM Fe d:4.0 
REM
CELL 1.54180    4.98939    4.94613    6.04200   90.00000  114.38668   90.00000
LATT -1
SFAC Li O  P  Fe 
Li     1  0.1099900000000  0.0000000000000  0.2199800000000 1.0  -0.00
Li     1 -0.3893180000000  0.5000000000000  0.2213630000000 1.0  -0.01
O      2  0.1903110000000 -0.2444170000000 -0.1506490000000 1.0   0.01
O      2  0.4248590000000 -0.2541570000000  0.3591700000000 1.0   0.30
O      2 -0.3409600000000  0.2444170000000 -0.1506490000000 1.0   0.01
O      2 -0.0656890000000  0.2541570000000  0.3591700000000 1.0   0.30
O      2 -0.3409600000000 -0.2444170000000 -0.1506490000000 1.0   0.01
O      2 -0.0656890000000 -0.2541570000000  0.3591700000000 1.0   0.30
O      2  0.1903110000000  0.2444170000000 -0.1506490000000 1.0   0.01
O      2  0.4248590000000  0.2541570000000  0.3591700000000 1.0   0.30
P      3  0.4518920000000  0.0000000000000 -0.0962150000000 1.0  -0.07
P      3 -0.0263880000000 -0.5000000000000 -0.0527760000000 1.0   0.06
Fe     4 -0.3125190000000  0.0000000000000 -0.6250380000000 1.0   2.99
Fe     4  0.2670100000000 -0.5000000000000 -0.4659790000000 1.0   4.14
END
