TITL 4LFP-201124-091825-ff3454 0.0717 151.784773 -6.07322531E+003 8.00000 8.06126 14 (Cc) n - 1
REM
REM Run started: Tue, 24 Nov 2020 10:27:46 +0000 in /lustre/scratch/uccabz1/launch_tmp/launcher_2020-11-24-09-18-22-885028
REM CASTEP 20.1 from code version af48c487+ pr-geom-scf-spinfix Tue Jun 2 15:39:59 2020 +0100
REM Functional Perdew Burke Ernzerhof Relativity Koelling-Harmon Dispersion off
REM Cut-off 300.0000 eV Grid scale 1.7500 Gmax 15.5288 1/A FBSC none
REM MP grid 3 3 3 Offset 0.000 0.000 0.000 No. kpts 10 Spacing 0.07
REM Total runtime: 4376.1 s
REM Overall efficiency: 69.8 %
REM
REM 4LFP.cell (a815d5d25b9f25a0a111bfe3624e67be)
REM
REM compiler GCC version 4.9.2
REM options -cpp -iprefix /lustre/shared/ucl/apps/gcc/4.9.2/bin/../lib/gcc/x86_64-unknown-linux-gnu/4.9.2/ -mtune=corei7 -march=x86-64 -g -Og
REM COMMAND_LINE
REM seed 359092232 1759420027 -1104660223 -2100847658 -917011094 -46014641 -1949017226 -898543898 1938217467 763305773 1168372594 -105749902
REM
REM P 3|1.8|4|5|5|30:31:32(qc=5)
REM O 2|1.5|12|13|15|20:21(qc=5)
REM Li 1|1.3|8|9|10|10U:20(qc=5)
REM Fe 3|2.2|2.0|1.0|8|9|10|40:41:32(qc=5)
REM Fe d:4.0 
REM
CELL 1.54180    5.10628    5.10628    6.18568   88.93561   88.93561   70.27653
LATT -1
SFAC Li O  P  Fe 
Li     1 -0.3873850000000  0.1302980000000 -0.1729970000000 1.0  -0.05
Li     1  0.1302980000000 -0.3873850000000  0.3270030000000 1.0  -0.05
O      2 -0.1858530000000  0.3159980000000 -0.3920200000000 1.0   0.04
O      2  0.2474530000000  0.3435560000000 -0.2006870000000 1.0   0.04
O      2 -0.1756810000000  0.7586020000000 -0.1997490000000 1.0   0.04
O      2 -0.1881680000000  0.3124200000000 -0.0026240000000 1.0   0.04
O      2  0.3159980000000 -0.1858530000000  0.1079800000000 1.0   0.04
O      2  0.3435560000000  0.2474530000000  0.2993130000000 1.0   0.04
O      2  0.7586020000000 -0.1756810000000  0.3002510000000 1.0   0.04
O      2  0.3124200000000 -0.1881680000000  0.4973760000000 1.0   0.04
P      3 -0.0737770000000  0.4367790000000 -0.1993450000000 1.0   0.01
P      3  0.4367790000000 -0.0737770000000  0.3006550000000 1.0   0.01
Fe     4  0.2453400000000 -0.2170040000000 -0.1977070000000 1.0   3.89
Fe     4 -0.2170040000000  0.2453400000000  0.3022930000000 1.0   3.89
END
