TITL 4LFP-201124-144805-f23b45 -0.0099 146.253639 -6.06555337E+003 8.00000 8.15228 14 (Pmc21) n - 1
REM
REM Run started: Tue, 24 Nov 2020 15:22:00 +0000 in /scratch/scratch/uccabz1/launch_tmp/launcher_2020-11-24-14-48-03-309151
REM CASTEP 19.11| from code version Version unavailable
REM Functional Perdew Burke Ernzerhof Relativity Koelling-Harmon Dispersion off
REM Cut-off 300.0000 eV Grid scale 1.7500 Gmax 15.5288 1/A FBSC none
REM MP grid 3 3 3 Offset 0.000 0.000 0.000 No. kpts 8 Spacing 0.07
REM Total runtime: 2236.34 s
REM Overall efficiency: 75.2857 %
REM
REM 4LFP.cell (a815d5d25b9f25a0a111bfe3624e67be)
REM
REM compiler GCC version 4.9.2
REM options -cpp -iprefix /scratch/UCL/applications/gcc/4.9.2/bin/../lib/gcc/x86_64-unknown-linux-gnu/4.9.2/ -mtune=corei7 -march=x86-64 -g -O2
REM COMMAND_LINE
REM seed 309087306 1854850269 -1343489108 -320444979 -1038495905 -999658145 -901401584 1032417003 1370968466 2006427725 1207459099 -6447989
REM
REM P 3|1.8|4|5|5|30:31:32(qc=5)
REM O 2|1.5|12|13|15|20:21(qc=5)
REM Li 1|1.3|8|9|10|10U:20(qc=5)
REM Fe 3|2.2|2.0|1.0|8|9|10|40:41:32(qc=5)
REM Fe d:4.0 
REM
CELL 1.54180    5.16975    4.93101    5.73721   90.00000   90.00000   90.00000
LATT -1
SFAC Li O  P  Fe 
Li     1  0.0000000000000  0.2405930000000 -0.0795840000000 1.0  -0.02
Li     1  0.0000000000000 -0.2405930000000  0.4204160000000 1.0  -0.02
O      2  0.2226420000000 -0.0417360000000  0.0435950000000 1.0   0.04
O      2  0.2193150000000 -0.5435740000000  0.3552090000000 1.0   0.04
O      2 -0.2226420000000  0.0417360000000 -0.4564050000000 1.0   0.04
O      2 -0.2193150000000  0.5435740000000 -0.1447910000000 1.0   0.04
O      2  0.2226420000000  0.0417360000000 -0.4564050000000 1.0   0.04
O      2  0.2193150000000  0.5435740000000 -0.1447910000000 1.0   0.04
O      2 -0.2226420000000 -0.0417360000000  0.0435950000000 1.0   0.04
O      2 -0.2193150000000 -0.5435740000000  0.3552090000000 1.0   0.04
P      3  0.0000000000000 -0.2588280000000 -0.0357020000000 1.0   0.01
P      3  0.0000000000000  0.2588280000000  0.4642980000000 1.0   0.01
Fe     4 -0.5000000000000  0.1907200000000  0.2456720000000 1.0   3.85
Fe     4 -0.5000000000000 -0.1907200000000 -0.2543280000000 1.0   3.85
END
