TITL 4LFP_actual-201126-162316-382f89 -0.0172 312.993689 -1.21473446E+004 16.0000 16.2693 28 (P21) n - 1
REM
REM Run started: Thu, 26 Nov 2020 19:02:25 +0000 in /lustre/scratch/uccabz1/launch_tmp/launcher_2020-11-26-16-23-06-619020
REM CASTEP 20.1 from code version af48c487+ pr-geom-scf-spinfix Tue Jun 2 15:39:59 2020 +0100
REM Functional Perdew Burke Ernzerhof Relativity Koelling-Harmon Dispersion off
REM Cut-off 300.0000 eV Grid scale 1.7500 Gmax 15.5288 1/A FBSC none
REM MP grid 3 2 2 Offset 0.000 0.000 0.000 No. kpts 4 Spacing 0.07
REM Total runtime: 9605.8 s
REM Overall efficiency: 78.6667 %
REM
REM 4LFP_actual.cell (cb690b6ff984803026f07b083c6867a4)
REM
REM compiler GCC version 4.9.2
REM options -cpp -iprefix /lustre/shared/ucl/apps/gcc/4.9.2/bin/../lib/gcc/x86_64-unknown-linux-gnu/4.9.2/ -mtune=corei7 -march=x86-64 -g -Og
REM COMMAND_LINE
REM seed 377361904 -1198760347 1446481738 -889507972 -449542206 -1469341535 869611650 1894023432 1683407317 1277148269 1252499515 -253837364
REM
REM P 3|1.8|4|5|5|30:31:32(qc=5)
REM O 2|1.5|12|13|15|20:21(qc=5)
REM Li 1|1.3|8|9|10|10U:20(qc=5)
REM Fe 3|2.2|2.0|1.0|8|9|10|40:41:32(qc=5)
REM Fe d:4.0 
REM
CELL 1.54180    4.95463    8.11056    7.96356  102.02356   90.00000   90.00000
LATT -1
SFAC Li O  P  Fe 
Li     1 -0.1998760000000 -0.0363900000000 -0.1530080000000 1.0  -0.03
Li     1  0.3001240000000  0.0363900000000  0.1530080000000 1.0  -0.03
Li     1 -0.3579570000000 -0.3684820000000  0.3082060000000 1.0  -0.04
Li     1  0.1420430000000  0.3684820000000 -0.3082060000000 1.0  -0.04
O      2  0.2247250000000 -0.0621150000000 -0.1072150000000 1.0   0.03
O      2  0.5717920000000  0.1422000000000 -0.1967950000000 1.0   0.04
O      2  0.2239670000000 -0.0112390000000 -0.4054040000000 1.0   0.08
O      2  0.0853010000000  0.2259300000000 -0.1586690000000 1.0   0.03
O      2 -0.2752750000000  0.0621150000000  0.1072150000000 1.0   0.03
O      2  0.0717920000000 -0.1422000000000  0.1967950000000 1.0   0.04
O      2 -0.2760330000000  0.0112390000000  0.4054040000000 1.0   0.08
O      2 -0.4146990000000 -0.2259300000000  0.1586690000000 1.0   0.03
O      2  0.3035940000000  0.5729060000000  0.4094220000000 1.0   0.03
O      2  0.2857810000000  0.2560100000000  0.3130100000000 1.0   0.03
O      2 -0.1075740000000  0.4299020000000  0.2383490000000 1.0   0.04
O      2  0.3594170000000  0.4501320000000  0.1001050000000 1.0   0.04
O      2 -0.1964060000000 -0.5729060000000 -0.4094220000000 1.0   0.03
O      2 -0.2142190000000 -0.2560100000000 -0.3130100000000 1.0   0.03
O      2 -0.6075740000000 -0.4299020000000 -0.2383490000000 1.0   0.04
O      2 -0.1405830000000 -0.4501320000000 -0.1001050000000 1.0   0.04
P      3  0.2782190000000  0.0757230000000 -0.2157830000000 1.0   0.01
P      3 -0.2217810000000 -0.0757230000000  0.2157830000000 1.0   0.01
P      3  0.2078940000000  0.4251170000000  0.2645400000000 1.0   0.01
P      3 -0.2921060000000 -0.4251170000000 -0.2645400000000 1.0   0.01
Fe     4 -0.2954610000000  0.2467030000000  0.3923910000000 1.0   3.85
Fe     4  0.2045390000000 -0.2467030000000 -0.3923910000000 1.0   3.85
Fe     4 -0.2604620000000  0.3244520000000 -0.0173670000000 1.0   3.87
Fe     4  0.2395380000000 -0.3244520000000  0.0173670000000 1.0   3.87
END
