TITL 4LFP-201124-125753-594adf -0.0049 153.222501 -6.07377500E+003 8.00000 8.15556 14 (P21) n - 1
REM
REM Run started: Tue, 24 Nov 2020 13:55:52 +0000 in /scratch/scratch/uccabz1/launch_tmp/launcher_2020-11-24-12-57-51-709629
REM CASTEP 19.11| from code version Version unavailable
REM Functional Perdew Burke Ernzerhof Relativity Koelling-Harmon Dispersion off
REM Cut-off 300.0000 eV Grid scale 1.7500 Gmax 15.5288 1/A FBSC none
REM MP grid 4 3 3 Offset 0.000 0.000 0.000 No. kpts 12 Spacing 0.07
REM Total runtime: 3951.92 s
REM Overall efficiency: 95.5 %
REM
REM 4LFP.cell (a815d5d25b9f25a0a111bfe3624e67be)
REM
REM compiler GCC version 4.9.2
REM options -cpp -iprefix /scratch/UCL/applications/gcc/4.9.2/bin/../lib/gcc/x86_64-unknown-linux-gnu/4.9.2/ -mtune=corei7 -march=x86-64 -g -O2
REM COMMAND_LINE
REM seed 1505103817 219185028 873602286 226287406 1731668217 -1262400838 504963511 2074138929 1291922811 -1164528933 611448118 148999331
REM
REM P 3|1.8|4|5|5|30:31:32(qc=5)
REM O 2|1.5|12|13|15|20:21(qc=5)
REM Li 1|1.3|8|9|10|10U:20(qc=5)
REM Fe 3|2.2|2.0|1.0|8|9|10|40:41:32(qc=5)
REM Fe d:4.0 
REM
CELL 1.54180    4.94610    5.99963    5.97161   90.00000   90.00000  120.15654
LATT -1
SFAC Li O  P  Fe 
Li     1  0.1944360000000  0.0302320000000  0.1863610000000 1.0  -0.03
Li     1 -0.1944360000000 -0.0302320000000 -0.3136390000000 1.0  -0.03
O      2 -0.2778520000000 -0.2269630000000  0.4094350000000 1.0   0.03
O      2 -0.3234770000000  0.1261700000000  0.2061050000000 1.0   0.03
O      2 -0.3014090000000 -0.2315230000000 -0.0098530000000 1.0   0.04
O      2 -0.7895590000000 -0.3204580000000  0.1916820000000 1.0   0.05
O      2  0.2778520000000  0.2269630000000 -0.0905650000000 1.0   0.03
O      2  0.3234770000000 -0.1261700000000 -0.2938950000000 1.0   0.03
O      2  0.3014090000000  0.2315230000000 -0.5098530000000 1.0   0.04
O      2  0.7895590000000  0.3204580000000 -0.3083180000000 1.0   0.05
P      3 -0.4215570000000 -0.1616940000000  0.2043560000000 1.0   0.01
P      3  0.4215570000000  0.1616940000000 -0.2956440000000 1.0   0.01
Fe     4  0.2216820000000 -0.4636970000000 -0.1517820000000 1.0   3.86
Fe     4 -0.2216820000000  0.4636970000000  0.3482180000000 1.0   3.86
END
