TITL 4LFP_actual-201126-181112-ba3e06 0.0205 328.299227 -1.21424000E+004 16.0000 16.3234 28 (F222) n - 1
REM
REM Run started: Thu, 26 Nov 2020 20:49:28 +0000 in /scratch/scratch/uccabz1/launch_tmp/launcher_2020-11-26-18-11-06-835251
REM CASTEP 19.11| from code version Version unavailable
REM Functional Perdew Burke Ernzerhof Relativity Koelling-Harmon Dispersion off
REM Cut-off 300.0000 eV Grid scale 1.7500 Gmax 15.5288 1/A FBSC none
REM MP grid 3 3 2 Offset 0.000 0.000 0.000 No. kpts 6 Spacing 0.07
REM Total runtime: 11188.5 s
REM Overall efficiency: 97.3333 %
REM
REM 4LFP_actual.cell (cb690b6ff984803026f07b083c6867a4)
REM
REM compiler GCC version 4.9.2
REM options -cpp -iprefix /scratch/UCL/applications/gcc/4.9.2/bin/../lib/gcc/x86_64-unknown-linux-gnu/4.9.2/ -mtune=corei7 -march=x86-64 -g -O2
REM COMMAND_LINE
REM seed 658240958 -176267716 -878594710 2044693956 2004305507 -2116758885 -1475408154 -1375295039 -1263789840 -858465641 1465627414 733743535
REM
REM P 3|1.8|4|5|5|30:31:32(qc=5)
REM O 2|1.5|12|13|15|20:21(qc=5)
REM Li 1|1.3|8|9|10|10U:20(qc=5)
REM Fe 3|2.2|2.0|1.0|8|9|10|40:41:32(qc=5)
REM Fe d:4.0 
REM
CELL 1.54180    6.04218    6.04218   10.18190  101.23139  101.23139  110.09422
LATT -1
SFAC Li O  P  Fe 
Li     1  0.4887440000000 -0.0112560000000 -0.0225130000000 1.0  -0.02
Li     1  0.0112560000000 -0.4887440000000  0.0225130000000 1.0  -0.02
Li     1 -0.5004440000000 -0.0004440000000  0.5000000000000 1.0  -0.03
Li     1  0.0004440000000  0.5004440000000 -0.5000000000000 1.0  -0.03
O      2  0.3100190000000  0.1101210000000  0.1232270000000 1.0   0.02
O      2  0.2439340000000 -0.0477810000000  0.3407160000000 1.0   0.01
O      2  0.3483110000000 -0.2882760000000  0.1455100000000 1.0   0.03
O      2 -0.0131060000000  0.1867920000000 -0.1232270000000 1.0   0.02
O      2 -0.3884970000000 -0.0967820000000 -0.3407160000000 1.0   0.01
O      2 -0.4337850000000  0.2028010000000 -0.1455100000000 1.0   0.03
O      2 -0.1867920000000  0.0131060000000  0.1232270000000 1.0   0.02
O      2  0.0967820000000  0.3884970000000  0.3407160000000 1.0   0.01
O      2 -0.2028010000000  0.4337850000000  0.1455100000000 1.0   0.03
O      2 -0.1101210000000 -0.3100190000000 -0.1232270000000 1.0   0.02
O      2  0.0477810000000 -0.2439340000000 -0.3407160000000 1.0   0.01
O      2  0.2882760000000 -0.3483110000000 -0.1455100000000 1.0   0.03
O      2 -0.2998490000000 -0.2998490000000  0.4003030000000 1.0   0.26
O      2  0.2998490000000  0.2998490000000 -0.4003030000000 1.0   0.26
O      2 -0.3414020000000  0.1585980000000  0.3171960000000 1.0   0.01
O      2 -0.1585980000000  0.3414020000000 -0.3171960000000 1.0   0.01
P      3  0.3700280000000 -0.0335270000000  0.2243250000000 1.0   0.01
P      3 -0.2578520000000  0.1457030000000 -0.2243250000000 1.0   0.01
P      3 -0.1457030000000  0.2578520000000  0.2243250000000 1.0   0.01
P      3  0.0335270000000 -0.3700280000000 -0.2243250000000 1.0   0.01
Fe     4 -0.1430560000000 -0.1951640000000  0.2681830000000 1.0   3.83
Fe     4 -0.4633470000000 -0.4112390000000 -0.2681830000000 1.0   3.83
Fe     4  0.4112390000000  0.4633470000000  0.2681830000000 1.0   3.83
Fe     4  0.1951640000000  0.1430560000000 -0.2681830000000 1.0   3.83
END
