TITL 4LFP-201124-132800-3fa150 -0.0250 150.315250 -6.07377269E+003 8.00000 8.09374 14 (P21) n - 1
REM
REM Run started: Tue, 24 Nov 2020 14:20:46 +0000 in /scratch/scratch/uccabz1/launch_tmp/launcher_2020-11-24-13-27-53-512471
REM CASTEP 19.11| from code version Version unavailable
REM Functional Perdew Burke Ernzerhof Relativity Koelling-Harmon Dispersion off
REM Cut-off 300.0000 eV Grid scale 1.7500 Gmax 15.5288 1/A FBSC none
REM MP grid 3 3 3 Offset 0.000 0.000 0.000 No. kpts 10 Spacing 0.07
REM Total runtime: 3299.47 s
REM Overall efficiency: 68.375 %
REM
REM 4LFP.cell (a815d5d25b9f25a0a111bfe3624e67be)
REM
REM compiler GCC version 4.9.2
REM options -cpp -iprefix /scratch/UCL/applications/gcc/4.9.2/bin/../lib/gcc/x86_64-unknown-linux-gnu/4.9.2/ -mtune=corei7 -march=x86-64 -g -O2
REM COMMAND_LINE
REM seed -2110351012 -1564242042 1552237328 604024419 -1417549636 1340571087 1221030172 -1635449392 361672389 361256775 364757709 430035591
REM
REM P 3|1.8|4|5|5|30:31:32(qc=5)
REM O 2|1.5|12|13|15|20:21(qc=5)
REM Li 1|1.3|8|9|10|10U:20(qc=5)
REM Fe 3|2.2|2.0|1.0|8|9|10|40:41:32(qc=5)
REM Fe d:4.0 
REM
CELL 1.54180    5.09998    4.89041    6.07484   97.20840   90.00000   90.00000
LATT -1
SFAC Li O  P  Fe 
Li     1  0.4120240000000  0.2204160000000 -0.0210110000000 1.0  -0.03
Li     1 -0.0879760000000 -0.2204160000000  0.0210110000000 1.0  -0.03
O      2 -0.1842730000000  0.4083850000000  0.0196560000000 1.0   0.03
O      2 -0.3769280000000  0.0910470000000 -0.3059870000000 1.0   0.03
O      2 -0.0271060000000  0.4309170000000 -0.3759750000000 1.0   0.05
O      2  0.0912870000000  0.0259030000000 -0.1611090000000 1.0   0.03
O      2  0.3157270000000 -0.4083850000000 -0.0196560000000 1.0   0.03
O      2  0.1230720000000 -0.0910470000000  0.3059870000000 1.0   0.03
O      2  0.4728940000000 -0.4309170000000  0.3759750000000 1.0   0.05
O      2  0.5912870000000 -0.0259030000000  0.1611090000000 1.0   0.03
P      3 -0.1259460000000  0.2341310000000 -0.2071860000000 1.0   0.01
P      3  0.3740540000000 -0.2341310000000  0.2071860000000 1.0   0.01
Fe     4 -0.1998010000000  0.2830630000000  0.3367220000000 1.0   3.88
Fe     4  0.3001990000000 -0.2830630000000 -0.3367220000000 1.0   3.88
END
