TITL 4LFP-201124-062027-6ef190 0.0173 153.592287 -6.07233106E+003 8.00000 8.10783 14 (C2) n - 1
REM
REM Run started: Tue, 24 Nov 2020 07:24:51 +0000 in /lustre/scratch/uccabz1/launch_tmp/launcher_2020-11-24-06-20-18-807979
REM CASTEP 20.1 from code version af48c487+ pr-geom-scf-spinfix Tue Jun 2 15:39:59 2020 +0100
REM Functional Perdew Burke Ernzerhof Relativity Koelling-Harmon Dispersion off
REM Cut-off 300.0000 eV Grid scale 1.7500 Gmax 15.5288 1/A FBSC none
REM MP grid 4 4 3 Offset 0.000 0.000 0.000 No. kpts 16 Spacing 0.07
REM Total runtime: 4665.59 s
REM Overall efficiency: 82.625 %
REM
REM 4LFP.cell (a815d5d25b9f25a0a111bfe3624e67be)
REM
REM compiler GCC version 4.9.2
REM options -cpp -iprefix /lustre/shared/ucl/apps/gcc/4.9.2/bin/../lib/gcc/x86_64-unknown-linux-gnu/4.9.2/ -mtune=corei7 -march=x86-64 -g -Og
REM COMMAND_LINE
REM seed 2021293266 -419298261 151348710 2110101066 1708379075 1053593787 -23951738 1391256782 -2015639987 615874058 -2059437090 -108700325
REM
REM P 3|1.8|4|5|5|30:31:32(qc=5)
REM O 2|1.5|12|13|15|20:21(qc=5)
REM Li 1|1.3|8|9|10|10U:20(qc=5)
REM Fe 3|2.2|2.0|1.0|8|9|10|40:41:32(qc=5)
REM Fe d:4.0 
REM
CELL 1.54180    5.06682    5.06682    6.68016  103.70377  103.70377  103.99868
LATT -1
SFAC Li O  P  Fe 
Li     1  0.2036470000000 -0.2036470000000  0.5000000000000 1.0  -0.02
Li     1  0.2323840000000 -0.2323840000000  0.0000000000000 1.0  -0.07
O      2 -0.3653810000000 -0.1958890000000  0.1095320000000 1.0   0.03
O      2  0.1724610000000  0.0194250000000  0.2213610000000 1.0   0.03
O      2 -0.1515120000000  0.3515290000000  0.2432750000000 1.0   0.02
O      2  0.1958890000000  0.3653810000000 -0.1095320000000 1.0   0.03
O      2 -0.0194250000000 -0.1724610000000 -0.2213610000000 1.0   0.03
O      2 -0.3515290000000  0.1515120000000 -0.2432750000000 1.0   0.02
O      2 -0.0559710000000  0.0559710000000  0.5000000000000 1.0   0.00
O      2  0.4248940000000 -0.4248940000000  0.5000000000000 1.0   0.25
P      3 -0.1031410000000  0.0696280000000  0.2562110000000 1.0   0.01
P      3 -0.0696280000000  0.1031410000000 -0.2562110000000 1.0   0.01
Fe     4  0.4561390000000  0.4237340000000  0.2253290000000 1.0   3.83
Fe     4 -0.4237340000000 -0.4561390000000 -0.2253290000000 1.0   3.83
END
