TITL 4LFP_actual-201126-181809-9e39da -0.0158 336.844754 -1.21370651E+004 16.0000 16.9302 28 (Cm) n - 1
REM
REM Run started: Fri, 27 Nov 2020 03:42:33 +0000 in /lustre/scratch/uccabz1/launch_tmp/launcher_2020-11-26-18-17-16-360502
REM CASTEP 20.1 from code version af48c487+ pr-geom-scf-spinfix Tue Jun 2 15:39:59 2020 +0100
REM Functional Perdew Burke Ernzerhof Relativity Koelling-Harmon Dispersion off
REM Cut-off 300.0000 eV Grid scale 1.7500 Gmax 15.5288 1/A FBSC none
REM MP grid 3 3 3 Offset 0.000 0.000 0.000 No. kpts 10 Spacing 0.07
REM Total runtime: 34288.4 s
REM Overall efficiency: 75.4615 %
REM
REM 4LFP_actual.cell (cb690b6ff984803026f07b083c6867a4)
REM
REM compiler GCC version 4.9.2
REM options -cpp -iprefix /lustre/shared/ucl/apps/gcc/4.9.2/bin/../lib/gcc/x86_64-unknown-linux-gnu/4.9.2/ -mtune=corei7 -march=x86-64 -g -Og
REM COMMAND_LINE
REM seed -520120286 -909462882 1981497261 -746644248 -317031750 522323426 -1037263377 58161706 -1818150308 -1798762046 1145864846 676437387
REM
REM P 3|1.8|4|5|5|30:31:32(qc=5)
REM O 2|1.5|12|13|15|20:21(qc=5)
REM Li 1|1.3|8|9|10|10U:20(qc=5)
REM Fe 3|2.2|2.0|1.0|8|9|10|40:41:32(qc=5)
REM Fe d:4.0 
REM
CELL 1.54180    7.55346    7.03482    7.03482   87.94219  108.13026  108.13026
LATT -1
SFAC Li O  P  Fe 
Li     1 -0.1589570000000 -0.0154860000000 -0.4336080000000 1.0  -0.03
Li     1 -0.1589570000000 -0.4336080000000 -0.0154860000000 1.0  -0.03
Li     1  0.3448400000000 -0.3153090000000 -0.3153090000000 1.0  -0.01
Li     1 -0.2324780000000 -0.0989750000000 -0.0989750000000 1.0   0.03
O      2  0.2170940000000 -0.2116550000000  0.4363210000000 1.0   0.11
O      2  0.0812230000000  0.0933630000000  0.3800350000000 1.0   0.02
O      2 -0.0434420000000 -0.1862620000000  0.1119470000000 1.0   0.01
O      2 -0.1182450000000 -0.2379410000000  0.4456690000000 1.0   0.03
O      2  0.2170940000000  0.4363210000000 -0.2116550000000 1.0   0.11
O      2  0.0812230000000  0.3800350000000  0.0933630000000 1.0   0.02
O      2 -0.0434420000000  0.1119470000000 -0.1862620000000 1.0   0.01
O      2 -0.1182450000000  0.4456690000000 -0.2379410000000 1.0   0.03
O      2 -0.3323750000000  0.0797500000000  0.3365620000000 1.0   0.04
O      2 -0.5363840000000  0.2885610000000  0.5420890000000 1.0   0.22
O      2 -0.6741520000000 -0.1720660000000  0.0753150000000 1.0   0.09
O      2 -0.4077940000000 -0.1694540000000  0.6221750000000 1.0  -0.03
O      2 -0.3323750000000  0.3365620000000  0.0797500000000 1.0   0.04
O      2 -0.5363840000000  0.5420890000000  0.2885610000000 1.0   0.22
O      2 -0.6741520000000  0.0753150000000 -0.1720660000000 1.0   0.09
O      2 -0.4077940000000  0.6221750000000 -0.1694540000000 1.0  -0.03
P      3  0.0356320000000 -0.1379550000000  0.3390600000000 1.0   0.01
P      3  0.0356320000000  0.3390600000000 -0.1379550000000 1.0   0.01
P      3  0.1883150000000 -0.1111320000000 -0.1111320000000 1.0   0.04
P      3 -0.3146100000000  0.1252870000000  0.1252870000000 1.0   0.02
Fe     4  0.4538120000000 -0.1975460000000  0.3576010000000 1.0   4.03
Fe     4  0.4538120000000  0.3576010000000 -0.1975460000000 1.0   4.03
Fe     4 -0.2918040000000  0.4912750000000  0.4912750000000 1.0   3.86
Fe     4  0.2690810000000  0.3200130000000  0.3200130000000 1.0   3.08
END
