TITL 4LFP-201124-094736-59a77f -0.0178 141.792102 -6.07230881E+003 8.00000 8.31330 14 (I41) n - 1
REM
REM Run started: Tue, 24 Nov 2020 11:56:10 +0000 in /lustre/scratch/uccabz1/launch_tmp/launcher_2020-11-24-09-47-34-171362
REM CASTEP 20.1 from code version af48c487+ pr-geom-scf-spinfix Tue Jun 2 15:39:59 2020 +0100
REM Functional Perdew Burke Ernzerhof Relativity Koelling-Harmon Dispersion off
REM Cut-off 300.0000 eV Grid scale 1.7500 Gmax 15.5288 1/A FBSC none
REM MP grid 4 4 3 Offset 0.000 0.000 0.000 No. kpts 22 Spacing 0.07
REM Total runtime: 8528.34 s
REM Overall efficiency: 59.25 %
REM
REM 4LFP.cell (a815d5d25b9f25a0a111bfe3624e67be)
REM
REM compiler GCC version 4.9.2
REM options -cpp -iprefix /lustre/shared/ucl/apps/gcc/4.9.2/bin/../lib/gcc/x86_64-unknown-linux-gnu/4.9.2/ -mtune=corei7 -march=x86-64 -g -Og
REM COMMAND_LINE
REM seed -377254653 1865294369 -1308764626 -906280698 -1750281713 -1127028683 -406870105 1894218707 -1856122929 -1055637129 -1649495229 -282117673
REM
REM P 3|1.8|4|5|5|30:31:32(qc=5)
REM O 2|1.5|12|13|15|20:21(qc=5)
REM Li 1|1.3|8|9|10|10U:20(qc=5)
REM Fe 3|2.2|2.0|1.0|8|9|10|40:41:32(qc=5)
REM Fe d:4.0 
REM
CELL 1.54180    4.71342    4.71342    7.20016  109.10580  109.10580   90.00000
LATT -1
SFAC Li O  P  Fe 
Li     1  0.1751960000000  0.1751960000000  0.3503920000000 1.0  -0.04
Li     1  0.4251960000000 -0.0748040000000 -0.1496080000000 1.0  -0.04
O      2 -0.3407960000000 -0.3985780000000 -0.1375670000000 1.0   0.05
O      2 -0.6784310000000 -0.1011810000000  0.1081470000000 1.0   0.03
O      2  0.2032290000000  0.2610110000000 -0.1375670000000 1.0   0.05
O      2  0.7865780000000  0.2093280000000  0.1081470000000 1.0   0.03
O      2 -0.1485780000000 -0.0467710000000  0.3624330000000 1.0   0.05
O      2  0.1488190000000  0.5365780000000  0.6081470000000 1.0   0.03
O      2  0.5110110000000  0.4092040000000  0.3624330000000 1.0   0.05
O      2  0.4593280000000  0.0715690000000  0.6081470000000 1.0   0.03
P      3 -0.3809360000000  0.1190640000000  0.2381270000000 1.0   0.02
P      3  0.3690640000000  0.3690640000000 -0.2618730000000 1.0   0.02
Fe     4  0.0426590000000 -0.4573410000000  0.0853180000000 1.0   3.86
Fe     4 -0.2073410000000 -0.2073410000000 -0.4146820000000 1.0   3.86
END
