TITL 4LFP-201124-103302-092a3d -0.0170 159.919886 -6.07146818E+003 8.00000 8.08804 14 (Pm) n - 1
REM
REM Run started: Tue, 24 Nov 2020 11:36:29 +0000 in /lustre/scratch/uccabz1/launch_tmp/launcher_2020-11-24-10-33-00-836364
REM CASTEP 20.1 from code version af48c487+ pr-geom-scf-spinfix Tue Jun 2 15:39:59 2020 +0100
REM Functional Perdew Burke Ernzerhof Relativity Koelling-Harmon Dispersion off
REM Cut-off 300.0000 eV Grid scale 1.7500 Gmax 15.5288 1/A FBSC none
REM MP grid 4 4 3 Offset 0.000 0.000 0.000 No. kpts 16 Spacing 0.07
REM Total runtime: 4398.31 s
REM Overall efficiency: 85.7143 %
REM
REM 4LFP.cell (a815d5d25b9f25a0a111bfe3624e67be)
REM
REM compiler GCC version 4.9.2
REM options -cpp -iprefix /lustre/shared/ucl/apps/gcc/4.9.2/bin/../lib/gcc/x86_64-unknown-linux-gnu/4.9.2/ -mtune=corei7 -march=x86-64 -g -Og
REM COMMAND_LINE
REM seed 1647505989 -939655983 1270620657 -465566918 -171165408 1204229083 -472107667 459335907 -1922204131 1858127367 1733916064 -1033756973
REM
REM P 3|1.8|4|5|5|30:31:32(qc=5)
REM O 2|1.5|12|13|15|20:21(qc=5)
REM Li 1|1.3|8|9|10|10U:20(qc=5)
REM Fe 3|2.2|2.0|1.0|8|9|10|40:41:32(qc=5)
REM Fe d:4.0 
REM
CELL 1.54180    5.26607    5.48979    6.98667   90.00000   90.00000  127.65036
LATT -1
SFAC Li O  P  Fe 
Li     1  0.0705320000000  0.1913150000000  0.5000000000000 1.0  -0.04
Li     1  0.1345400000000  0.1837660000000  0.0000000000000 1.0  -0.02
O      2 -0.5547000000000 -0.7264350000000  0.2335610000000 1.0   0.03
O      2  0.0489740000000 -0.4481090000000  0.3035170000000 1.0   0.02
O      2 -0.1903750000000 -0.1620630000000  0.3166330000000 1.0   0.04
O      2 -0.5547000000000 -0.7264350000000 -0.2335610000000 1.0   0.03
O      2  0.0489740000000 -0.4481090000000 -0.3035170000000 1.0   0.02
O      2 -0.1903750000000 -0.1620630000000 -0.3166330000000 1.0   0.04
O      2 -0.2560930000000  0.1007680000000  0.0000000000000 1.0   0.25
O      2 -0.1062400000000 -0.3101670000000  0.0000000000000 1.0   0.00
P      3 -0.2086220000000 -0.4258660000000  0.2232240000000 1.0   0.01
P      3 -0.2086220000000 -0.4258660000000 -0.2232240000000 1.0   0.01
Fe     4  0.4945140000000 -0.0914570000000  0.2232820000000 1.0   3.81
Fe     4  0.4945140000000 -0.0914570000000 -0.2232820000000 1.0   3.81
END
