TITL 4LFP_actual-201127-012946-498305 -0.0329 296.736701 -1.21441577E+004 16.0000 16.2924 28 (C2/c) n - 1
REM
REM Run started: Fri, 27 Nov 2020 03:52:31 +0000 in /lustre/scratch/uccabz1/launch_tmp/launcher_2020-11-27-01-29-28-022574
REM CASTEP 20.1 from code version af48c487+ pr-geom-scf-spinfix Tue Jun 2 15:39:59 2020 +0100
REM Functional Perdew Burke Ernzerhof Relativity Koelling-Harmon Dispersion off
REM Cut-off 300.0000 eV Grid scale 1.7500 Gmax 15.5288 1/A FBSC none
REM MP grid 3 3 2 Offset 0.000 0.000 0.000 No. kpts 6 Spacing 0.07
REM Total runtime: 9605.87 s
REM Overall efficiency: 96.2857 %
REM
REM 4LFP_actual.cell (cb690b6ff984803026f07b083c6867a4)
REM
REM compiler GCC version 4.9.2
REM options -cpp -iprefix /lustre/shared/ucl/apps/gcc/4.9.2/bin/../lib/gcc/x86_64-unknown-linux-gnu/4.9.2/ -mtune=corei7 -march=x86-64 -g -Og
REM COMMAND_LINE
REM seed -211634126 846975184 -886282307 15998513 384016126 -374356264 -24237179 -960916804 1841833060 -378758533 -1959848412 -1267053107
REM
REM P 3|1.8|4|5|5|30:31:32(qc=5)
REM O 2|1.5|12|13|15|20:21(qc=5)
REM Li 1|1.3|8|9|10|10U:20(qc=5)
REM Fe 3|2.2|2.0|1.0|8|9|10|40:41:32(qc=5)
REM Fe d:4.0 
REM
CELL 1.54180    6.13057    6.13057    7.89976   89.80866   89.80866   88.09759
LATT -1
SFAC Li O  P  Fe 
Li     1  0.0460790000000 -0.3260280000000  0.4096540000000 1.0  -0.03
Li     1 -0.1739720000000  0.4539210000000  0.0903460000000 1.0  -0.03
Li     1 -0.0460790000000  0.3260280000000 -0.4096540000000 1.0  -0.03
Li     1  0.1739720000000 -0.4539210000000 -0.0903460000000 1.0  -0.03
O      2 -0.7014770000000  0.2528560000000 -0.0141490000000 1.0   0.03
O      2 -0.5117770000000  0.4492290000000 -0.2442980000000 1.0   0.05
O      2 -0.2834830000000  0.2114670000000 -0.0373850000000 1.0   0.02
O      2  0.2471440000000  0.2014770000000 -0.4858510000000 1.0   0.03
O      2  0.0507710000000  0.0117770000000 -0.2557020000000 1.0   0.05
O      2  0.2885330000000 -0.2165170000000 -0.4626150000000 1.0   0.02
O      2  0.7014770000000 -0.2528560000000  0.0141490000000 1.0   0.03
O      2  0.5117770000000 -0.4492290000000  0.2442980000000 1.0   0.05
O      2  0.2834830000000 -0.2114670000000  0.0373850000000 1.0   0.02
O      2 -0.2471440000000 -0.2014770000000  0.4858510000000 1.0   0.03
O      2 -0.0507710000000 -0.0117770000000  0.2557020000000 1.0   0.05
O      2 -0.2885330000000  0.2165170000000  0.4626150000000 1.0   0.02
O      2  0.0299600000000  0.4700400000000  0.2500000000000 1.0   0.24
O      2 -0.0299600000000 -0.4700400000000 -0.2500000000000 1.0   0.24
O      2 -0.4743680000000 -0.0256320000000  0.2500000000000 1.0   0.01
O      2  0.4743680000000  0.0256320000000 -0.2500000000000 1.0   0.01
P      3 -0.4984580000000  0.2449020000000 -0.1298200000000 1.0   0.02
P      3  0.2550980000000 -0.0015420000000 -0.3701800000000 1.0   0.02
P      3  0.4984580000000 -0.2449020000000  0.1298200000000 1.0   0.02
P      3 -0.2550980000000  0.0015420000000  0.3701800000000 1.0   0.02
Fe     4 -0.0000000000000  0.0000000000000  0.0000000000000 1.0   3.83
Fe     4  0.5000000000000 -0.5000000000000  0.5000000000000 1.0   3.83
Fe     4  0.2435970000000  0.2564030000000  0.2500000000000 1.0   3.74
Fe     4 -0.2435970000000 -0.2564030000000 -0.2500000000000 1.0   3.74
END
