TITL 4LFP-201124-105846-794161 -0.0250 157.096807 -6.07345770E+003 8.00000 8.15021 14 (P21) n - 1
REM
REM Run started: Tue, 24 Nov 2020 12:32:28 +0000 in /scratch/scratch/uccabz1/launch_tmp/launcher_2020-11-24-10-58-44-680064
REM CASTEP 19.11| from code version Version unavailable
REM Functional Perdew Burke Ernzerhof Relativity Koelling-Harmon Dispersion off
REM Cut-off 300.0000 eV Grid scale 1.7500 Gmax 15.5288 1/A FBSC none
REM MP grid 4 4 2 Offset 0.000 0.000 0.000 No. kpts 8 Spacing 0.07
REM Total runtime: 6119.46 s
REM Overall efficiency: 94.3 %
REM
REM 4LFP.cell (a815d5d25b9f25a0a111bfe3624e67be)
REM
REM compiler GCC version 4.9.2
REM options -cpp -iprefix /scratch/UCL/applications/gcc/4.9.2/bin/../lib/gcc/x86_64-unknown-linux-gnu/4.9.2/ -mtune=corei7 -march=x86-64 -g -O2
REM COMMAND_LINE
REM seed -450989672 -1935712765 1499198279 -468853375 1704840058 -385459749 488292283 1027770710 -795393719 1384536458 -1710253168 -606919082
REM
REM P 3|1.8|4|5|5|30:31:32(qc=5)
REM O 2|1.5|12|13|15|20:21(qc=5)
REM Li 1|1.3|8|9|10|10U:20(qc=5)
REM Fe 3|2.2|2.0|1.0|8|9|10|40:41:32(qc=5)
REM Fe d:4.0 
REM
CELL 1.54180    4.83947    5.05006    7.29873   90.00000   90.00000  118.27376
LATT -1
SFAC Li O  P  Fe 
Li     1  0.2290120000000  0.4299970000000 -0.2895690000000 1.0  -0.04
Li     1 -0.2290120000000 -0.4299970000000  0.2104310000000 1.0  -0.04
O      2 -0.3301970000000 -0.3681200000000 -0.2137510000000 1.0   0.01
O      2 -0.0851960000000  0.1017130000000 -0.4080270000000 1.0   0.02
O      2  0.2673940000000 -0.1082330000000 -0.3067630000000 1.0   0.02
O      2 -0.1454530000000 -0.3956320000000 -0.5351470000000 1.0   0.04
O      2  0.3301970000000  0.3681200000000  0.2862490000000 1.0   0.01
O      2  0.0851960000000 -0.1017130000000  0.0919730000000 1.0   0.02
O      2 -0.2673940000000  0.1082330000000  0.1932370000000 1.0   0.02
O      2  0.1454530000000  0.3956320000000 -0.0351470000000 1.0   0.04
P      3 -0.0835190000000 -0.1959980000000 -0.3622640000000 1.0   0.01
P      3  0.0835190000000  0.1959980000000  0.1377360000000 1.0   0.01
Fe     4 -0.4388390000000  0.1533370000000  0.4593750000000 1.0   3.93
Fe     4  0.4388390000000 -0.1533370000000 -0.0406250000000 1.0   3.93
END
