TITL 4LFP-201124-134020-790c3c -0.0441 138.504990 -6.07268713E+003 8.00000 8.16040 14 (Aea2) n - 1
REM
REM Run started: Tue, 24 Nov 2020 14:07:14 +0000 in /lustre/scratch/uccabz1/launch_tmp/launcher_2020-11-24-13-40-18-018198
REM CASTEP 20.1 from code version af48c487+ pr-geom-scf-spinfix Tue Jun 2 15:39:59 2020 +0100
REM Functional Perdew Burke Ernzerhof Relativity Koelling-Harmon Dispersion off
REM Cut-off 300.0000 eV Grid scale 1.7500 Gmax 15.5288 1/A FBSC none
REM MP grid 3 3 4 Offset 0.000 0.000 0.000 No. kpts 12 Spacing 0.07
REM Total runtime: 1993.2 s
REM Overall efficiency: 75.5 %
REM
REM 4LFP.cell (a815d5d25b9f25a0a111bfe3624e67be)
REM
REM compiler GCC version 4.9.2
REM options -cpp -iprefix /lustre/shared/ucl/apps/gcc/4.9.2/bin/../lib/gcc/x86_64-unknown-linux-gnu/4.9.2/ -mtune=corei7 -march=x86-64 -g -Og
REM COMMAND_LINE
REM seed 1513613391 -1356937424 496798310 1682896168 -2031238670 -1501602788 -38833017 1817186146 -235389110 514515682 -492420540 -1373310069
REM
REM P 3|1.8|4|5|5|30:31:32(qc=5)
REM O 2|1.5|12|13|15|20:21(qc=5)
REM Li 1|1.3|8|9|10|10U:20(qc=5)
REM Fe 3|2.2|2.0|1.0|8|9|10|40:41:32(qc=5)
REM Fe d:4.0 
REM
CELL 1.54180    5.92335    5.31218    5.30537   90.00000  123.93419   90.00000
LATT -1
SFAC Li O  P  Fe 
Li     1  0.0865950000000 -0.0000000000000  0.1731890000000 1.0  -0.06
Li     1 -0.4134050000000  0.5000000000000 -0.8268110000000 1.0  -0.06
O      2  0.1167960000000 -0.1377970000000  0.5580900000000 1.0   0.03
O      2 -0.3847270000000 -0.1913340000000  0.0127610000000 1.0   0.04
O      2  0.4412950000000  0.1377970000000  0.5580900000000 1.0   0.03
O      2  0.3974880000000  0.1913340000000  0.0127610000000 1.0   0.04
O      2 -0.0587050000000  0.3622030000000  0.5580900000000 1.0   0.03
O      2 -0.1025120000000  0.3086660000000  0.0127610000000 1.0   0.04
O      2  0.6167960000000 -0.3622030000000  0.5580900000000 1.0   0.03
O      2  0.1152730000000 -0.3086660000000  0.0127610000000 1.0   0.04
P      3 -0.1058110000000  0.5000000000000 -0.2116220000000 1.0   0.01
P      3  0.3941890000000 -0.0000000000000  0.7883780000000 1.0   0.01
Fe     4 -0.2868660000000 -0.0000000000000 -0.5737320000000 1.0   3.90
Fe     4  0.2131340000000  0.5000000000000  0.4262680000000 1.0   3.90
END
