TITL 4LFP_actual-201126-173723-8d0510 0.0946 301.343365 -1.21472854E+004 16.0000 16.2586 28 (Pnn2) n - 1
REM
REM Run started: Thu, 26 Nov 2020 19:21:09 +0000 in /lustre/scratch/uccabz1/launch_tmp/launcher_2020-11-26-17-37-05-013204
REM CASTEP 20.1 from code version af48c487+ pr-geom-scf-spinfix Tue Jun 2 15:39:59 2020 +0100
REM Functional Perdew Burke Ernzerhof Relativity Koelling-Harmon Dispersion off
REM Cut-off 300.0000 eV Grid scale 1.7500 Gmax 15.5288 1/A FBSC none
REM MP grid 3 3 2 Offset 0.000 0.000 0.000 No. kpts 4 Spacing 0.07
REM Total runtime: 6516.07 s
REM Overall efficiency: 74 %
REM
REM 4LFP_actual.cell (cb690b6ff984803026f07b083c6867a4)
REM
REM compiler GCC version 4.9.2
REM options -cpp -iprefix /lustre/shared/ucl/apps/gcc/4.9.2/bin/../lib/gcc/x86_64-unknown-linux-gnu/4.9.2/ -mtune=corei7 -march=x86-64 -g -Og
REM COMMAND_LINE
REM seed -2024806580 -435039172 325577500 -952466610 -1702837527 -161484641 291898690 -2128462215 2009576791 626105660 228523943 -1506684232
REM
REM P 3|1.8|4|5|5|30:31:32(qc=5)
REM O 2|1.5|12|13|15|20:21(qc=5)
REM Li 1|1.3|8|9|10|10U:20(qc=5)
REM Fe 3|2.2|2.0|1.0|8|9|10|40:41:32(qc=5)
REM Fe d:4.0 
REM
CELL 1.54180    4.94859    6.26920    9.71333   90.00000   90.00000   90.00000
LATT -1
SFAC Li O  P  Fe 
Li     1 -0.4581400000000 -0.2679690000000 -0.4684630000000 1.0  -0.04
Li     1 -0.4581400000000  0.2679690000000  0.4684630000000 1.0  -0.04
Li     1  0.0418600000000  0.2320310000000 -0.0315370000000 1.0  -0.04
Li     1  0.0418600000000 -0.2320310000000  0.0315370000000 1.0  -0.04
O      2 -0.6184680000000  0.5939040000000 -0.1248190000000 1.0   0.05
O      2 -0.6125080000000  0.1880010000000 -0.1174120000000 1.0   0.04
O      2 -0.5584940000000  0.3912000000000 -0.3462020000000 1.0   0.03
O      2 -0.1803730000000  0.3881280000000 -0.1573720000000 1.0   0.04
O      2 -0.6184680000000 -0.5939040000000  0.1248190000000 1.0   0.05
O      2 -0.6125080000000 -0.1880010000000  0.1174120000000 1.0   0.04
O      2 -0.5584940000000 -0.3912000000000  0.3462020000000 1.0   0.03
O      2 -0.1803730000000 -0.3881280000000  0.1573720000000 1.0   0.04
O      2 -0.1184680000000  0.0939040000000 -0.3751810000000 1.0   0.05
O      2 -0.1125080000000 -0.3119990000000 -0.3825880000000 1.0   0.04
O      2 -0.0584940000000 -0.1088000000000 -0.1537980000000 1.0   0.03
O      2  0.3196270000000 -0.1118720000000 -0.3426280000000 1.0   0.04
O      2 -0.1184680000000 -0.0939040000000  0.3751810000000 1.0   0.05
O      2 -0.1125080000000  0.3119990000000  0.3825880000000 1.0   0.04
O      2 -0.0584940000000  0.1088000000000  0.1537980000000 1.0   0.03
O      2  0.3196270000000  0.1118720000000  0.3426280000000 1.0   0.04
P      3 -0.4879950000000  0.3925050000000 -0.1866740000000 1.0   0.01
P      3 -0.4879950000000 -0.3925050000000  0.1866740000000 1.0   0.01
P      3  0.0120050000000 -0.1074950000000 -0.3133260000000 1.0   0.01
P      3  0.0120050000000  0.1074950000000  0.3133260000000 1.0   0.01
Fe     4  0.0149180000000 -0.6110980000000 -0.3447910000000 1.0   3.87
Fe     4  0.0149180000000  0.6110980000000  0.3447910000000 1.0   3.87
Fe     4 -0.4850820000000 -0.1110980000000 -0.1552090000000 1.0   3.87
Fe     4 -0.4850820000000  0.1110980000000  0.1552090000000 1.0   3.87
END
