TITL 4LFP-201124-112522-3e1052 0.0398 159.633858 -6.06738959E+003 7.99983 8.18845 14 (Pmn21) n - 1
REM
REM Run started: Tue, 24 Nov 2020 12:08:44 +0000 in /scratch/scratch/uccabz1/launch_tmp/launcher_2020-11-24-11-25-20-638072
REM CASTEP 19.11| from code version Version unavailable
REM Functional Perdew Burke Ernzerhof Relativity Koelling-Harmon Dispersion off
REM Cut-off 300.0000 eV Grid scale 1.7500 Gmax 15.5288 1/A FBSC none
REM MP grid 3 3 3 Offset 0.000 0.000 0.000 No. kpts 8 Spacing 0.07
REM Total runtime: 3112.2 s
REM Overall efficiency: 77 %
REM
REM 4LFP.cell (a815d5d25b9f25a0a111bfe3624e67be)
REM
REM compiler GCC version 4.9.2
REM options -cpp -iprefix /scratch/UCL/applications/gcc/4.9.2/bin/../lib/gcc/x86_64-unknown-linux-gnu/4.9.2/ -mtune=corei7 -march=x86-64 -g -O2
REM COMMAND_LINE
REM seed -1493885120 1152557048 1045699027 -1473326470 1967414410 -656444056 -514982906 1265522919 -1941727125 -1376718702 836174502 72010689
REM
REM P 3|1.8|4|5|5|30:31:32(qc=5)
REM O 2|1.5|12|13|15|20:21(qc=5)
REM Li 1|1.3|8|9|10|10U:20(qc=5)
REM Fe 3|2.2|2.0|1.0|8|9|10|40:41:32(qc=5)
REM Fe d:4.0 
REM
CELL 1.54180    5.06027    5.22111    6.04211   90.00000   90.00000   90.00000
LATT -1
SFAC Li O  P  Fe 
Li     1 -0.2917020000000 -0.0000000000000 -0.4664920000000 1.0  -0.02
Li     1  0.2082980000000  0.5000000000000  0.4664920000000 1.0  -0.02
O      2  0.5547150000000  0.2817950000000  0.1420980000000 1.0   0.07
O      2 -0.0711710000000  0.2761650000000  0.3568670000000 1.0   0.04
O      2  0.0547150000000  0.2182050000000 -0.1420980000000 1.0   0.07
O      2 -0.5711710000000  0.2238350000000 -0.3568670000000 1.0   0.04
O      2  0.0547150000000 -0.2182050000000 -0.1420980000000 1.0   0.07
O      2 -0.5711710000000 -0.2238350000000 -0.3568670000000 1.0   0.04
O      2  0.5547150000000 -0.2817950000000  0.1420980000000 1.0   0.07
O      2 -0.0711710000000 -0.2761650000000  0.3568670000000 1.0   0.04
P      3  0.2418380000000 -0.0000000000000 -0.2601880000000 1.0  -0.01
P      3 -0.2581620000000 -0.5000000000000  0.2601880000000 1.0  -0.01
Fe     4 -0.1559220000000 -0.0000000000000  0.0880860000000 1.0   3.82
Fe     4  0.3440780000000 -0.5000000000000 -0.0880860000000 1.0   3.82
END
