TITL 4LFP-201124-080957-6db7ec 0.0270 168.659374 -6.06870315E+003 8.00037 8.38140 14 (Cm) n - 1
REM
REM Run started: Tue, 24 Nov 2020 09:03:21 +0000 in /lustre/scratch/uccabz1/launch_tmp/launcher_2020-11-24-08-09-55-591834
REM CASTEP 20.1 from code version af48c487+ pr-geom-scf-spinfix Tue Jun 2 15:39:59 2020 +0100
REM Functional Perdew Burke Ernzerhof Relativity Koelling-Harmon Dispersion off
REM Cut-off 300.0000 eV Grid scale 1.7500 Gmax 15.5288 1/A FBSC none
REM MP grid 4 3 3 Offset 0.000 0.000 0.000 No. kpts 12 Spacing 0.07
REM Total runtime: 3588.34 s
REM Overall efficiency: 71.3333 %
REM
REM 4LFP.cell (a815d5d25b9f25a0a111bfe3624e67be)
REM
REM compiler GCC version 4.9.2
REM options -cpp -iprefix /lustre/shared/ucl/apps/gcc/4.9.2/bin/../lib/gcc/x86_64-unknown-linux-gnu/4.9.2/ -mtune=corei7 -march=x86-64 -g -Og
REM COMMAND_LINE
REM seed 1481537008 -1065702940 1897557118 -404281900 -1618856514 1556166765 1198004751 -842911469 -1465174004 -1907781552 -595670628 -817380564
REM
REM P 3|1.8|4|5|5|30:31:32(qc=5)
REM O 2|1.5|12|13|15|20:21(qc=5)
REM Li 1|1.3|8|9|10|10U:20(qc=5)
REM Fe 3|2.2|2.0|1.0|8|9|10|40:41:32(qc=5)
REM Fe d:4.0 
REM
CELL 1.54180    5.00629    6.74734    6.74734   81.18614  120.21591  120.21591
LATT -1
SFAC Li O  P  Fe 
Li     1 -0.2072150000000 -0.1144850000000 -0.4676700000000 1.0  -0.02
Li     1 -0.2072150000000 -0.4676700000000 -0.1144850000000 1.0  -0.02
O      2  0.8873200000000  0.0946310000000 -0.2390190000000 1.0   0.03
O      2  0.5604050000000  0.2200740000000 -0.1211410000000 1.0   0.02
O      2  0.1974650000000 -0.1213540000000 -0.4380510000000 1.0   0.07
O      2  0.8873200000000 -0.2390190000000  0.0946310000000 1.0   0.03
O      2  0.5604050000000 -0.1211410000000  0.2200740000000 1.0   0.02
O      2  0.1974650000000 -0.4380510000000 -0.1213540000000 1.0   0.07
O      2 -0.3474470000000  0.3402270000000  0.3402270000000 1.0   0.04
O      2 -0.5312110000000 -0.4155370000000 -0.4155370000000 1.0   0.34
P      3  0.5619820000000  0.0281130000000 -0.2152230000000 1.0   0.01
P      3  0.5619820000000 -0.2152230000000  0.0281130000000 1.0   0.01
Fe     4  0.0805400000000 -0.4555270000000 -0.4555270000000 1.0   3.55
Fe     4  0.3042780000000  0.0902090000000  0.0902090000000 1.0   3.84
END
