TITL 4LFP_actual-201126-170110-e84b46 -0.0241 314.342609 -1.21435613E+004 16.0000 16.2181 28 (Pm) n - 1
REM
REM Run started: Fri, 27 Nov 2020 01:24:51 +0000 in /scratch/scratch/uccabz1/launch_tmp/launcher_2020-11-26-17-01-00-603895
REM CASTEP 19.11| from code version Version unavailable
REM Functional Perdew Burke Ernzerhof Relativity Koelling-Harmon Dispersion off
REM Cut-off 300.0000 eV Grid scale 1.7500 Gmax 15.5288 1/A FBSC none
REM MP grid 3 3 2 Offset 0.000 0.000 0.000 No. kpts 5 Spacing 0.07
REM Total runtime: 30756.3 s
REM Overall efficiency: 63.8 %
REM
REM 4LFP_actual.cell (cb690b6ff984803026f07b083c6867a4)
REM
REM compiler GCC version 4.9.2
REM options -cpp -iprefix /scratch/UCL/applications/gcc/4.9.2/bin/../lib/gcc/x86_64-unknown-linux-gnu/4.9.2/ -mtune=corei7 -march=x86-64 -g -O2
REM COMMAND_LINE
REM seed 869860561 912502544 2015516030 -1546708078 -2095436218 1447785725 -1310251903 1745574336 -1517591460 -768863349 1922382247 1093942054
REM
REM P 3|1.8|4|5|5|30:31:32(qc=5)
REM O 2|1.5|12|13|15|20:21(qc=5)
REM Li 1|1.3|8|9|10|10U:20(qc=5)
REM Fe 3|2.2|2.0|1.0|8|9|10|40:41:32(qc=5)
REM Fe d:4.0 
REM
CELL 1.54180    4.77000    6.01179   10.96627   90.00000   90.00000   88.35759
LATT -1
SFAC Li O  P  Fe 
Li     1 -0.3128270000000 -0.2221610000000  0.3149150000000 1.0  -0.04
Li     1 -0.3128270000000 -0.2221610000000 -0.3149150000000 1.0  -0.04
Li     1 -0.2740160000000 -0.2766740000000  0.0000000000000 1.0  -0.01
Li     1 -0.5272380000000  0.0718530000000  0.0000000000000 1.0  -0.05
O      2  0.4256160000000 -0.1809240000000  0.1244920000000 1.0   0.00
O      2  0.2866440000000 -0.3867040000000  0.3126480000000 1.0   0.01
O      2 -0.0169990000000 -0.0678840000000  0.2489230000000 1.0   0.02
O      2 -0.0273500000000 -0.4215010000000  0.1241590000000 1.0   0.01
O      2  0.4256160000000 -0.1809240000000 -0.1244920000000 1.0   0.00
O      2  0.2866440000000 -0.3867040000000 -0.3126480000000 1.0   0.01
O      2 -0.0169990000000 -0.0678840000000 -0.2489230000000 1.0   0.02
O      2 -0.0273500000000 -0.4215010000000 -0.1241590000000 1.0   0.01
O      2 -0.7288550000000  0.2283080000000  0.3875730000000 1.0   0.03
O      2 -0.5692410000000  0.2884530000000  0.1665930000000 1.0   0.03
O      2 -0.2535500000000  0.4054120000000  0.3386990000000 1.0   0.03
O      2 -0.7288550000000  0.2283080000000 -0.3875730000000 1.0   0.03
O      2 -0.5692410000000  0.2884530000000 -0.1665930000000 1.0   0.03
O      2 -0.2535500000000  0.4054120000000 -0.3386990000000 1.0   0.03
O      2 -0.1273350000000  0.0637660000000  0.0000000000000 1.0   0.21
O      2 -0.2804090000000 -0.2075700000000  0.5000000000000 1.0   0.18
P      3  0.1600110000000 -0.2529630000000  0.1862250000000 1.0   0.01
P      3  0.1600110000000 -0.2529630000000 -0.1862250000000 1.0   0.01
P      3 -0.5585730000000  0.3665550000000  0.2988600000000 1.0   0.00
P      3 -0.5585730000000  0.3665550000000 -0.2988600000000 1.0   0.00
Fe     4 -0.0602000000000  0.2323930000000 -0.1446940000000 1.0   3.87
Fe     4 -0.0602000000000  0.2323930000000  0.1446940000000 1.0   3.87
Fe     4  0.4070990000000 -0.0138060000000 -0.5000000000000 1.0   3.87
Fe     4 -0.0702540000000 -0.4969010000000  0.5000000000000 1.0   3.86
END
