TITL 4LFP-201124-103705-1ace3e 0.0038 127.079419 -6.06937776E+003 8.00000 8.08537 14 (C2/c) n - 1
REM
REM Run started: Tue, 24 Nov 2020 11:31:27 +0000 in /lustre/scratch/uccabz1/launch_tmp/launcher_2020-11-24-10-37-00-534098
REM CASTEP 20.1 from code version af48c487+ pr-geom-scf-spinfix Tue Jun 2 15:39:59 2020 +0100
REM Functional Perdew Burke Ernzerhof Relativity Koelling-Harmon Dispersion off
REM Cut-off 300.0000 eV Grid scale 1.7500 Gmax 15.5288 1/A FBSC none
REM MP grid 4 4 4 Offset 0.000 0.000 0.000 No. kpts 32 Spacing 0.07
REM Total runtime: 4660.34 s
REM Overall efficiency: 95.4 %
REM
REM 4LFP.cell (a815d5d25b9f25a0a111bfe3624e67be)
REM
REM compiler GCC version 4.9.2
REM options -cpp -iprefix /lustre/shared/ucl/apps/gcc/4.9.2/bin/../lib/gcc/x86_64-unknown-linux-gnu/4.9.2/ -mtune=corei7 -march=x86-64 -g -Og
REM COMMAND_LINE
REM seed 470840390 2095405491 -779138404 395245397 1365537253 -488421726 -1755925516 808602408 -21342571 274509054 1580406845 -1076486413
REM
REM P 3|1.8|4|5|5|30:31:32(qc=5)
REM O 2|1.5|12|13|15|20:21(qc=5)
REM Li 1|1.3|8|9|10|10U:20(qc=5)
REM Fe 3|2.2|2.0|1.0|8|9|10|40:41:32(qc=5)
REM Fe d:4.0 
REM
CELL 1.54180    5.59469    5.59470    5.48884  114.01571  114.45951  102.19403
LATT -1
SFAC Li O  P  Fe 
Li     1  1.0000000000000  0.5000000000000  1.0000000000000 1.0  -0.04
Li     1 -1.0000000000000 -0.5000000000000 -0.5000000000000 1.0  -0.04
O      2 -0.2134150000000 -0.2185870000000  0.0609030000000 1.0   0.04
O      2 -0.1864060000000  0.1878910000000  0.5157530000000 1.0   0.06
O      2 -0.6910560000000 -0.3167520000000 -0.0158780000000 1.0   0.07
O      2 -0.2794440000000 -0.2887330000000  0.4384720000000 1.0   0.04
O      2  0.2134150000000  0.2185870000000 -0.0609030000000 1.0   0.04
O      2  0.1864060000000 -0.1878910000000 -0.5157530000000 1.0   0.06
O      2  0.6910560000000  0.3167520000000  0.0158780000000 1.0   0.07
O      2  0.2794440000000  0.2887330000000 -0.4384720000000 1.0   0.04
P      3  0.0000000000000  0.0000000000000  0.5000000000000 1.0   0.01
P      3 -0.5000000000000 -0.5000000000000  0.0000000000000 1.0   0.01
Fe     4  0.3949880000000  0.0952550000000  0.2476680000000 1.0   3.82
Fe     4 -0.3949880000000 -0.0952550000000 -0.2476680000000 1.0   3.82
END
