TITL 4LFP_actual-201126-175356-b84f49 -0.0030 284.556633 -1.21353701E+004 14.0707 15.7270 28 (P-1) n - 1
REM
REM Run started: Thu, 26 Nov 2020 22:45:47 +0000 in /lustre/scratch/uccabz1/launch_tmp/launcher_2020-11-26-17-53-02-894535
REM CASTEP 20.1 from code version af48c487+ pr-geom-scf-spinfix Tue Jun 2 15:39:59 2020 +0100
REM Functional Perdew Burke Ernzerhof Relativity Koelling-Harmon Dispersion off
REM Cut-off 300.0000 eV Grid scale 1.7500 Gmax 15.5288 1/A FBSC none
REM MP grid 3 3 3 Offset 0.000 0.000 0.000 No. kpts 14 Spacing 0.07
REM Total runtime: 19710.2 s
REM Overall efficiency: 79.8333 %
REM
REM 4LFP_actual.cell (cb690b6ff984803026f07b083c6867a4)
REM
REM compiler GCC version 4.9.2
REM options -cpp -iprefix /lustre/shared/ucl/apps/gcc/4.9.2/bin/../lib/gcc/x86_64-unknown-linux-gnu/4.9.2/ -mtune=corei7 -march=x86-64 -g -Og
REM COMMAND_LINE
REM seed -570292877 -1259975617 -1579025284 1441269001 990433092 -1683459698 -1778478419 2110853326 1881414378 1515181555 -743121862 248730571
REM
REM P 3|1.8|4|5|5|30:31:32(qc=5)
REM O 2|1.5|12|13|15|20:21(qc=5)
REM Li 1|1.3|8|9|10|10U:20(qc=5)
REM Fe 3|2.2|2.0|1.0|8|9|10|40:41:32(qc=5)
REM Fe d:4.0 
REM
CELL 1.54180    5.87071    7.57848    7.18782   91.64605   81.83027  115.89881
LATT -1
SFAC Li O  P  Fe 
Li     1  0.3313610000000  0.2034390000000  0.2304950000000 1.0  -0.03
Li     1 -0.3313610000000 -0.2034390000000 -0.2304950000000 1.0  -0.03
Li     1 -0.2259740000000 -0.1935500000000  0.2059800000000 1.0   0.00
Li     1  0.2259740000000  0.1935500000000 -0.2059800000000 1.0   0.00
O      2 -0.0253500000000 -0.5353820000000 -0.2270560000000 1.0   0.06
O      2 -0.1274210000000 -0.2688130000000 -0.0560060000000 1.0   0.03
O      2  0.3274910000000 -0.2627990000000 -0.0901580000000 1.0  -0.01
O      2  0.1255410000000 -0.2200660000000 -0.3864060000000 1.0   0.08
O      2  0.0253500000000  0.5353820000000  0.2270560000000 1.0   0.06
O      2  0.1274210000000  0.2688130000000  0.0560060000000 1.0   0.03
O      2 -0.3274910000000  0.2627990000000  0.0901580000000 1.0  -0.01
O      2 -0.1255410000000  0.2200660000000  0.3864060000000 1.0   0.08
O      2  0.9224860000000  0.0496170000000 -0.2991790000000 1.0  -0.01
O      2  0.3150230000000  0.2103420000000 -0.5135990000000 1.0  -0.02
O      2  0.4560670000000  0.0828710000000 -0.2174130000000 1.0   0.16
O      2  0.4859210000000  0.4809470000000 -0.2784970000000 1.0  -0.07
O      2 -0.9224860000000 -0.0496170000000  0.2991790000000 1.0  -0.01
O      2 -0.3150230000000 -0.2103420000000  0.5135990000000 1.0  -0.02
O      2 -0.4560670000000 -0.0828710000000  0.2174130000000 1.0   0.16
O      2 -0.4859210000000 -0.4809470000000  0.2784970000000 1.0  -0.07
P      3  0.0776020000000 -0.3160680000000 -0.1782800000000 1.0   0.01
P      3 -0.0776020000000  0.3160680000000  0.1782800000000 1.0   0.01
P      3  0.5000000000000  0.5000000000000  0.5000000000000 1.0  -0.35
P      3  0.0000000000000  0.0000000000000  0.5000000000000 1.0  -0.02
Fe     4  0.0000000000000 -0.5000000000000 -0.5000000000000 1.0   3.65
Fe     4  0.5000000000000  0.0000000000000  0.0000000000000 1.0   2.85
Fe     4 -0.5000000000000  0.0000000000000  0.5000000000000 1.0   3.81
Fe     4  0.5000000000000  0.5000000000000  0.0000000000000 1.0   3.73
END
