TITL 4LFP_actual-201201-114641-b9e350 -0.0037 290.812558 -1.21450415E+004 16.0000 16.1775 28 (Pc) n - 1
REM
REM Run started: Tue, 01 Dec 2020 13:35:25 +0000 in /lustre/scratch/uccabz1/launch_tmp/launcher_2020-12-01-11-45-54-475510
REM CASTEP 20.1 from code version af48c487+ pr-geom-scf-spinfix Tue Jun 2 15:39:59 2020 +0100
REM Functional Perdew Burke Ernzerhof Relativity Koelling-Harmon Dispersion off
REM Cut-off 300.0000 eV Grid scale 1.7500 Gmax 15.5288 1/A FBSC none
REM MP grid 3 3 2 Offset 0.000 0.000 0.000 No. kpts 5 Spacing 0.07
REM Total runtime: 7152.2 s
REM Overall efficiency: 72.7778 %
REM
REM 4LFP_actual.cell (cb690b6ff984803026f07b083c6867a4)
REM
REM compiler GCC version 4.9.2
REM options -cpp -iprefix /lustre/shared/ucl/apps/gcc/4.9.2/bin/../lib/gcc/x86_64-unknown-linux-gnu/4.9.2/ -mtune=corei7 -march=x86-64 -g -Og
REM COMMAND_LINE
REM seed -668364473 777834110 1620785669 -58309156 -1292307245 1207176857 -376117146 2096235705 -1020325795 1415883757 -471663993 -1734641269
REM
REM P 3|1.8|4|5|5|30:31:32(qc=5)
REM O 2|1.5|12|13|15|20:21(qc=5)
REM Li 1|1.3|8|9|10|10U:20(qc=5)
REM Fe 3|2.2|2.0|1.0|8|9|10|40:41:32(qc=5)
REM Fe d:4.0 
REM
CELL 1.54180    5.52120    6.05608    8.69739   90.00000   90.00000   89.88430
LATT -1
SFAC Li O  P  Fe 
Li     1 -0.3488660000000 -0.0817290000000  0.4628970000000 1.0  -0.01
Li     1 -0.3488660000000  0.4182710000000 -0.4628970000000 1.0  -0.01
Li     1  0.1520420000000  0.1812510000000  0.4636400000000 1.0  -0.01
Li     1  0.1520420000000 -0.3187490000000 -0.4636400000000 1.0  -0.01
O      2 -0.1194750000000  0.2141800000000 -0.3836650000000 1.0   0.01
O      2  0.1219470000000  0.0823600000000 -0.1372720000000 1.0   0.05
O      2  0.2737530000000  0.3848960000000 -0.3118540000000 1.0   0.03
O      2 -0.0901040000000  0.4317760000000 -0.1247490000000 1.0   0.06
O      2 -0.1194750000000 -0.2858200000000  0.3836650000000 1.0   0.01
O      2  0.1219470000000 -0.4176400000000  0.1372720000000 1.0   0.05
O      2  0.2737530000000 -0.1151040000000  0.3118540000000 1.0   0.03
O      2 -0.0901040000000 -0.0682240000000  0.1247490000000 1.0   0.06
O      2 -0.3833490000000  0.0387610000000 -0.1387840000000 1.0   0.05
O      2 -0.6221100000000 -0.1027530000000 -0.3844420000000 1.0   0.01
O      2 -0.2210940000000 -0.2606750000000 -0.3136990000000 1.0   0.03
O      2 -0.5815960000000 -0.3168740000000 -0.1263920000000 1.0   0.05
O      2 -0.3833490000000  0.5387610000000  0.1387840000000 1.0   0.05
O      2 -0.6221100000000  0.3972470000000  0.3844420000000 1.0   0.01
O      2 -0.2210940000000  0.2393250000000  0.3136990000000 1.0   0.03
O      2 -0.5815960000000  0.1831260000000  0.1263920000000 1.0   0.05
P      3  0.0428160000000  0.2736390000000 -0.2461970000000 1.0   0.00
P      3  0.0428160000000 -0.2263610000000  0.2461970000000 1.0   0.00
P      3 -0.4555040000000 -0.1551430000000 -0.2470180000000 1.0   0.00
P      3 -0.4555040000000  0.3448570000000  0.2470180000000 1.0   0.00
Fe     4  0.0124070000000 -0.2267050000000 -0.1097730000000 1.0   3.87
Fe     4  0.0124070000000  0.2732950000000  0.1097730000000 1.0   3.87
Fe     4  0.5171470000000 -0.1455150000000  0.1001670000000 1.0   3.86
Fe     4  0.5171470000000  0.3544850000000 -0.1001670000000 1.0   3.86
END
