TITL 4LFP-201124-110834-992419 -0.0074 162.756598 -6.07286308E+003 8.00000 8.05106 14 (Cc) n - 1
REM
REM Run started: Tue, 24 Nov 2020 12:33:47 +0000 in /scratch/scratch/uccabz1/launch_tmp/launcher_2020-11-24-11-08-27-676408
REM CASTEP 19.11| from code version Version unavailable
REM Functional Perdew Burke Ernzerhof Relativity Koelling-Harmon Dispersion off
REM Cut-off 300.0000 eV Grid scale 1.7500 Gmax 15.5288 1/A FBSC none
REM MP grid 3 3 3 Offset 0.000 0.000 0.000 No. kpts 10 Spacing 0.07
REM Total runtime: 5909.45 s
REM Overall efficiency: 88.125 %
REM
REM 4LFP.cell (a815d5d25b9f25a0a111bfe3624e67be)
REM
REM compiler GCC version 4.9.2
REM options -cpp -iprefix /scratch/UCL/applications/gcc/4.9.2/bin/../lib/gcc/x86_64-unknown-linux-gnu/4.9.2/ -mtune=corei7 -march=x86-64 -g -O2
REM COMMAND_LINE
REM seed 289148245 -1009306013 -1487509267 -831859982 -1600449499 1662902962 -2004408179 1857654784 -534365650 -641974815 -1342357772 1647135017
REM
REM P 3|1.8|4|5|5|30:31:32(qc=5)
REM O 2|1.5|12|13|15|20:21(qc=5)
REM Li 1|1.3|8|9|10|10U:20(qc=5)
REM Fe 3|2.2|2.0|1.0|8|9|10|40:41:32(qc=5)
REM Fe d:4.0 
REM
CELL 1.54180    5.18211    5.18211    6.43500   96.97755   96.97755  105.92918
LATT -1
SFAC Li O  P  Fe 
Li     1  0.2008830000000  0.2028030000000  0.0708350000000 1.0  -0.03
Li     1  0.2028030000000  0.2008830000000 -0.4291650000000 1.0  -0.03
O      2  0.0770780000000 -0.1465900000000 -0.0897980000000 1.0   0.04
O      2  0.1520360000000 -0.6166660000000 -0.1898140000000 1.0   0.01
O      2  0.5482260000000 -0.2251250000000 -0.0067060000000 1.0   0.05
O      2  0.1497060000000 -0.4335750000000  0.1842990000000 1.0   0.05
O      2 -0.1465900000000  0.0770780000000  0.4102020000000 1.0   0.04
O      2 -0.6166660000000  0.1520360000000  0.3101860000000 1.0   0.01
O      2 -0.2251250000000  0.5482260000000  0.4932940000000 1.0   0.05
O      2 -0.4335750000000  0.1497060000000  0.6842990000000 1.0   0.05
P      3  0.2303950000000 -0.3544510000000 -0.0316750000000 1.0   0.01
P      3 -0.3544510000000  0.2303950000000  0.4683250000000 1.0   0.01
Fe     4 -0.2776450000000 -0.1620590000000 -0.2881960000000 1.0   3.87
Fe     4 -0.1620590000000 -0.2776450000000  0.2118040000000 1.0   3.87
END
