TITL 4LFP-201124-080011-d1bbfc 0.0668 156.304668 -6.07156447E+003 8.00000 8.14462 14 (P2) n - 1
REM
REM Run started: Tue, 24 Nov 2020 08:16:35 +0000 in /lustre/scratch/uccabz1/launch_tmp/launcher_2020-11-24-08-00-05-516230
REM CASTEP 20.1 from code version af48c487+ pr-geom-scf-spinfix Tue Jun 2 15:39:59 2020 +0100
REM Functional Perdew Burke Ernzerhof Relativity Koelling-Harmon Dispersion off
REM Cut-off 300.0000 eV Grid scale 1.7500 Gmax 15.5288 1/A FBSC none
REM MP grid 4 3 3 Offset 0.000 0.000 0.000 No. kpts 10 Spacing 0.07
REM Total runtime: 1266.25 s
REM Overall efficiency: 77.6667 %
REM
REM 4LFP.cell (a815d5d25b9f25a0a111bfe3624e67be)
REM
REM compiler GCC version 4.9.2
REM options -cpp -iprefix /lustre/shared/ucl/apps/gcc/4.9.2/bin/../lib/gcc/x86_64-unknown-linux-gnu/4.9.2/ -mtune=corei7 -march=x86-64 -g -Og
REM COMMAND_LINE
REM seed 1740773121 -1479453176 -702063162 -1433728823 1529489807 -838655285 -1477406076 311876934 1652430782 -174377070 -1845872736 -1677655522
REM
REM P 3|1.8|4|5|5|30:31:32(qc=5)
REM O 2|1.5|12|13|15|20:21(qc=5)
REM Li 1|1.3|8|9|10|10U:20(qc=5)
REM Fe 3|2.2|2.0|1.0|8|9|10|40:41:32(qc=5)
REM Fe d:4.0 
REM
CELL 1.54180    4.72143    5.46730    6.32961  106.93396   90.00000   90.00000
LATT -1
SFAC Li O  P  Fe 
Li     1  0.0276910000000  0.0851090000000 -0.1689950000000 1.0  -0.04
Li     1  0.0276910000000 -0.0851090000000  0.1689950000000 1.0  -0.04
O      2  0.3028650000000  0.2285810000000  0.4836960000000 1.0   0.05
O      2  0.2510450000000  0.2398830000000  0.1031410000000 1.0   0.04
O      2  0.7039190000000  0.4040240000000  0.2696450000000 1.0   0.06
O      2  0.6415690000000 -0.0683170000000  0.2113210000000 1.0   0.02
O      2  0.3028650000000 -0.2285810000000 -0.4836960000000 1.0   0.05
O      2  0.2510450000000 -0.2398830000000 -0.1031410000000 1.0   0.04
O      2  0.7039190000000 -0.4040240000000 -0.2696450000000 1.0   0.06
O      2  0.6415690000000  0.0683170000000 -0.2113210000000 1.0   0.02
P      3  0.4805810000000  0.1891580000000  0.2707030000000 1.0   0.01
P      3  0.4805810000000 -0.1891580000000 -0.2707030000000 1.0   0.01
Fe     4 -0.4820970000000 -0.5000000000000  0.0000000000000 1.0   3.88
Fe     4  0.0161720000000  0.5000000000000  0.5000000000000 1.0   3.85
END
