TITL 4LFP-201124-143348-421ba5 -0.0293 163.591884 -6.07449528E+003 8.00000 8.12025 14 (P-1) n - 1
REM
REM Run started: Tue, 24 Nov 2020 16:24:43 +0000 in /lustre/scratch/uccabz1/launch_tmp/launcher_2020-11-24-14-33-46-128145
REM CASTEP 20.1 from code version af48c487+ pr-geom-scf-spinfix Tue Jun 2 15:39:59 2020 +0100
REM Functional Perdew Burke Ernzerhof Relativity Koelling-Harmon Dispersion off
REM Cut-off 300.0000 eV Grid scale 1.7500 Gmax 15.5288 1/A FBSC none
REM MP grid 3 3 3 Offset 0.000 0.000 0.000 No. kpts 14 Spacing 0.07
REM Total runtime: 6927.6 s
REM Overall efficiency: 95.3333 %
REM
REM 4LFP.cell (a815d5d25b9f25a0a111bfe3624e67be)
REM
REM compiler GCC version 4.9.2
REM options -cpp -iprefix /lustre/shared/ucl/apps/gcc/4.9.2/bin/../lib/gcc/x86_64-unknown-linux-gnu/4.9.2/ -mtune=corei7 -march=x86-64 -g -Og
REM COMMAND_LINE
REM seed 446182513 291914113 600513992 -2068110459 -1610085071 690840518 19640098 409882341 1007994414 2136949208 -646957714 808898158
REM
REM P 3|1.8|4|5|5|30:31:32(qc=5)
REM O 2|1.5|12|13|15|20:21(qc=5)
REM Li 1|1.3|8|9|10|10U:20(qc=5)
REM Fe 3|2.2|2.0|1.0|8|9|10|40:41:32(qc=5)
REM Fe d:4.0 
REM
CELL 1.54180    5.06108    6.19447    5.79660   64.50692   93.60651   93.50552
LATT -1
SFAC Li O  P  Fe 
Li     1 -0.1997130000000 -0.1334890000000 -0.1540000000000 1.0  -0.04
Li     1  0.1997130000000  0.1334890000000  0.1540000000000 1.0  -0.04
O      2  0.2206800000000  0.3152620000000 -0.6307000000000 1.0   0.04
O      2  0.1819740000000 -0.0700030000000 -0.2109460000000 1.0   0.04
O      2  0.6261750000000  0.1511030000000 -0.3477570000000 1.0   0.05
O      2  0.2647760000000  0.3221470000000 -0.1905420000000 1.0   0.04
O      2 -0.2206800000000 -0.3152620000000  0.6307000000000 1.0   0.04
O      2 -0.1819740000000  0.0700030000000  0.2109460000000 1.0   0.04
O      2 -0.6261750000000 -0.1511030000000  0.3477570000000 1.0   0.05
O      2 -0.2647760000000 -0.3221470000000  0.1905420000000 1.0   0.04
P      3  0.3243490000000  0.1803660000000 -0.3475040000000 1.0   0.01
P      3 -0.3243490000000 -0.1803660000000  0.3475040000000 1.0   0.01
Fe     4 -0.1875290000000  0.3389840000000  0.3168680000000 1.0   3.85
Fe     4  0.1875290000000 -0.3389840000000 -0.3168680000000 1.0   3.85
END
