TITL 4LFP_actual-201126-183959-71bab6 -0.0103 305.620656 -1.21468555E+004 16.0000 16.1537 28 (Pca21) n - 1
REM
REM Run started: Thu, 26 Nov 2020 19:15:13 +0000 in /lustre/scratch/uccabz1/launch_tmp/launcher_2020-11-26-18-39-58-238877
REM CASTEP 20.1 from code version af48c487+ pr-geom-scf-spinfix Tue Jun 2 15:39:59 2020 +0100
REM Functional Perdew Burke Ernzerhof Relativity Koelling-Harmon Dispersion off
REM Cut-off 300.0000 eV Grid scale 1.7500 Gmax 15.5288 1/A FBSC none
REM MP grid 3 3 2 Offset 0.000 0.000 0.000 No. kpts 4 Spacing 0.07
REM Total runtime: 2642.86 s
REM Overall efficiency: 74.6667 %
REM
REM 4LFP_actual.cell (cb690b6ff984803026f07b083c6867a4)
REM
REM compiler GCC version 4.9.2
REM options -cpp -iprefix /lustre/shared/ucl/apps/gcc/4.9.2/bin/../lib/gcc/x86_64-unknown-linux-gnu/4.9.2/ -mtune=corei7 -march=x86-64 -g -Og
REM COMMAND_LINE
REM seed 2144534501 1212904543 -1959687625 -706569402 1065049036 1007783471 708765760 -794767068 44763321 611709474 -1674908033 1649252874
REM
REM P 3|1.8|4|5|5|30:31:32(qc=5)
REM O 2|1.5|12|13|15|20:21(qc=5)
REM Li 1|1.3|8|9|10|10U:20(qc=5)
REM Fe 3|2.2|2.0|1.0|8|9|10|40:41:32(qc=5)
REM Fe d:4.0 
REM
CELL 1.54180    5.89804    6.19438    8.36521   90.00000   90.00000   90.00000
LATT -1
SFAC Li O  P  Fe 
Li     1 -0.3891800000000  0.1374020000000  0.4919820000000 1.0  -0.01
Li     1  0.1108200000000 -0.1374020000000 -0.4919820000000 1.0  -0.01
Li     1 -0.3891800000000 -0.3625980000000 -0.4919820000000 1.0  -0.01
Li     1  0.1108200000000  0.3625980000000  0.4919820000000 1.0  -0.01
O      2  0.2429060000000 -0.3781960000000 -0.4047090000000 1.0   0.01
O      2  0.5803870000000 -0.5441030000000 -0.2875780000000 1.0   0.04
O      2  0.3928690000000 -0.2472080000000 -0.1233210000000 1.0   0.05
O      2  0.2002310000000 -0.6027790000000 -0.1485240000000 1.0   0.05
O      2 -0.2570940000000  0.3781960000000  0.4047090000000 1.0   0.01
O      2  0.0803870000000  0.5441030000000  0.2875780000000 1.0   0.04
O      2 -0.1071310000000  0.2472080000000  0.1233210000000 1.0   0.05
O      2 -0.2997690000000  0.6027790000000  0.1485240000000 1.0   0.05
O      2  0.2429060000000  0.1218040000000  0.4047090000000 1.0   0.01
O      2  0.5803870000000 -0.0441030000000  0.2875780000000 1.0   0.04
O      2  0.3928690000000  0.2527920000000  0.1233210000000 1.0   0.05
O      2  0.2002310000000 -0.1027790000000  0.1485240000000 1.0   0.05
O      2 -0.2570940000000 -0.1218040000000 -0.4047090000000 1.0   0.01
O      2  0.0803870000000  0.0441030000000 -0.2875780000000 1.0   0.04
O      2 -0.1071310000000 -0.2527920000000 -0.1233210000000 1.0   0.05
O      2 -0.2997690000000  0.1027790000000 -0.1485240000000 1.0   0.05
P      3  0.3512920000000 -0.4360870000000 -0.2423120000000 1.0   0.01
P      3 -0.1487080000000  0.4360870000000  0.2423120000000 1.0   0.01
P      3  0.3512920000000  0.0639130000000  0.2423120000000 1.0   0.01
P      3 -0.1487080000000 -0.0639130000000 -0.2423120000000 1.0   0.01
Fe     4  0.3381330000000 -0.4180160000000  0.1227960000000 1.0   3.86
Fe     4 -0.1618670000000  0.4180160000000 -0.1227960000000 1.0   3.86
Fe     4  0.3381330000000  0.0819840000000 -0.1227960000000 1.0   3.86
Fe     4 -0.1618670000000 -0.0819840000000  0.1227960000000 1.0   3.86
END
