TITL 4LFP-201124-140305-ae567b -0.0678 153.251912 -6.06336430E+003 4.00000 5.26143 14 (Cm) n - 1
REM
REM Run started: Tue, 24 Nov 2020 15:08:34 +0000 in /lustre/scratch/uccabz1/launch_tmp/launcher_2020-11-24-14-02-59-323455
REM CASTEP 20.1 from code version af48c487+ pr-geom-scf-spinfix Tue Jun 2 15:39:59 2020 +0100
REM Functional Perdew Burke Ernzerhof Relativity Koelling-Harmon Dispersion off
REM Cut-off 300.0000 eV Grid scale 1.7500 Gmax 15.5288 1/A FBSC none
REM MP grid 3 3 3 Offset 0.000 0.000 0.000 No. kpts 10 Spacing 0.07
REM Total runtime: 4065.94 s
REM Overall efficiency: 80.2857 %
REM
REM 4LFP.cell (a815d5d25b9f25a0a111bfe3624e67be)
REM
REM compiler GCC version 4.9.2
REM options -cpp -iprefix /lustre/shared/ucl/apps/gcc/4.9.2/bin/../lib/gcc/x86_64-unknown-linux-gnu/4.9.2/ -mtune=corei7 -march=x86-64 -g -Og
REM COMMAND_LINE
REM seed -300891309 182297899 27743523 -489749966 129873309 2007527905 707797341 1575121481 1294761501 516839885 -2091949373 -1194548334
REM
REM P 3|1.8|4|5|5|30:31:32(qc=5)
REM O 2|1.5|12|13|15|20:21(qc=5)
REM Li 1|1.3|8|9|10|10U:20(qc=5)
REM Fe 3|2.2|2.0|1.0|8|9|10|40:41:32(qc=5)
REM Fe d:4.0 
REM
CELL 1.54180    5.39048    5.53070    6.49732  116.61274  115.96030   86.91230
LATT -1
SFAC Li O  P  Fe 
Li     1  0.5425800000000  0.0940150000000  0.4892650000000 1.0   0.00
Li     1  0.0533140000000 -0.3952510000000 -0.4892650000000 1.0   0.00
O      2 -0.5955990000000 -0.7955970000000 -0.7817290000000 1.0  -0.06
O      2 -0.7613780000000 -0.2384740000000 -0.6808080000000 1.0   0.00
O      2 -0.5657980000000 -0.5275370000000 -0.2547670000000 1.0  -0.03
O      2 -0.2539470000000 -0.0001900000000 -0.2197640000000 1.0  -0.04
O      2  0.1861310000000 -0.0138680000000  0.7817290000000 1.0  -0.06
O      2 -0.0805700000000  0.4423340000000  0.6808080000000 1.0   0.00
O      2 -0.3110300000000 -0.2727700000000  0.2547670000000 1.0  -0.03
O      2 -0.0341840000000  0.2195730000000  0.2197630000000 1.0  -0.04
P      3  0.0755680000000  0.1632450000000 -0.0000000000000 1.0  -0.03
P      3 -0.3030560000000 -0.3983300000000 -0.0000000000000 1.0  -0.07
Fe     4 -0.4220620000000  0.0858160000000 -0.0000000000000 1.0   3.14
Fe     4 -0.9164740000000 -0.4325510000000 -0.0000000000000 1.0   1.20
END
