TITL 4LFP_actual-201126-192432-fd4892 -1.2673 312.117862 -1.21444667E+004 16.0000 16.4155 28 (P1) n - 1
REM
REM Run started: Fri, 27 Nov 2020 09:58:37 +0000 in /scratch/scratch/mmm0366/launch_tmp/launcher_2020-11-27-08-56-15-861576
REM CASTEP 19.11| from code version Version unavailable
REM Functional Perdew Burke Ernzerhof Relativity Koelling-Harmon Dispersion off
REM Cut-off 300.0000 eV Grid scale 1.7500 Gmax 15.5288 1/A FBSC none
REM MP grid 4 3 2 Offset 0.000 0.000 0.000 No. kpts 12 Spacing 0.07
REM Total runtime: 44997.7 s
REM Overall efficiency: 98.2727 %
REM
REM
REM
REM compiler GCC version 4.9.2
REM options -cpp -iprefix /scratch/UCL/applications/gcc/4.9.2/bin/../lib/gcc/x86_64-unknown-linux-gnu/4.9.2/ -mtune=corei7 -march=x86-64 -g -O2
REM COMMAND_LINE
REM seed 1654392634 213402619 -1084493171 -549341482 -2102835758 17388527 369258988 -90886346 323810774 1877978326 861723332 133996734
REM
REM P 3|1.8|4|5|5|30:31:32(qc=5)
REM O 2|1.5|12|13|15|20:21(qc=5)
REM Li 1|1.3|8|9|10|10U:20(qc=5)
REM Fe 3|2.2|2.0|1.0|8|9|10|40:41:32(qc=5)
REM Fe d:4.0 
REM
CELL 1.54180    4.67337    7.29150    9.72796   95.95339   90.00000  108.69117
LATT -1
SFAC Li O  P  Fe 
Li     1 -0.0171620000000  0.4859240000000 -0.3923490000000 1.0  -0.04
Li     1 -0.5030850000000 -0.4859220000000  0.3923490000000 1.0  -0.04
Li     1 -0.1848740000000  0.1284220000000 -0.0710950000000 1.0  -0.03
Li     1 -0.3132950000000 -0.1284200000000  0.0710950000000 1.0  -0.03
O      2  0.0507020000000 -0.4891510000000  0.3912240000000 1.0   0.04
O      2  0.5080530000000 -0.1854470000000  0.4361010000000 1.0   0.05
O      2  0.0452560000000 -0.1803450000000  0.2969040000000 1.0   0.05
O      2  0.0525320000000 -0.2094090000000  0.5706230000000 1.0   0.04
O      2  0.5398540000000  0.4891530000000 -0.3912240000000 1.0   0.04
O      2  0.6935010000000  0.1854490000000 -0.4361010000000 1.0   0.05
O      2  0.2256030000000  0.1803470000000 -0.2969040000000 1.0   0.05
O      2  0.2619410000000  0.2094110000000 -0.5706230000000 1.0   0.04
O      2  0.4297420000000 -0.0927220000000 -0.1484670000000 1.0   0.03
O      2 -0.1318910000000 -0.2297510000000 -0.0796660000000 1.0   0.02
O      2  0.1179300000000 -0.4545140000000 -0.2039240000000 1.0   0.03
O      2  0.2911420000000 -0.3149120000000  0.0399310000000 1.0   0.03
O      2  0.5224650000000  0.0927240000000  0.1484670000000 1.0   0.03
O      2  0.0978620000000  0.2297530000000  0.0796660000000 1.0   0.02
O      2  0.5724450000000  0.4545160000000  0.2039240000000 1.0   0.03
O      2  0.6060560000000  0.3149140000000 -0.0399310000000 1.0   0.03
P      3  0.1467660000000 -0.2580200000000  0.4226570000000 1.0  -0.00
P      3  0.4047870000000  0.2580220000000 -0.4226570000000 1.0  -0.00
P      3  0.1712970000000 -0.2688530000000 -0.0985360000000 1.0   0.00
P      3  0.4401510000000  0.2688550000000  0.0985360000000 1.0   0.00
Fe     4 -0.4819260000000 -0.0860170000000 -0.3483280000000 1.0   3.90
Fe     4 -0.3959080000000  0.0860190000000  0.3483280000000 1.0   3.90
Fe     4  0.0510870000000 -0.4835820000000  0.1769000000000 1.0   3.87
Fe     4 -0.4653290000000  0.4835840000000 -0.1769000000000 1.0   3.87
END
