TITL 4LFP-201124-133446-0c0edb 0.0574 172.078107 -6.07214622E+003 8.00000 8.20853 14 (Cm) n - 1
REM
REM Run started: Tue, 24 Nov 2020 15:25:39 +0000 in /scratch/scratch/uccabz1/launch_tmp/launcher_2020-11-24-13-34-44-750955
REM CASTEP 19.11| from code version Version unavailable
REM Functional Perdew Burke Ernzerhof Relativity Koelling-Harmon Dispersion off
REM Cut-off 300.0000 eV Grid scale 1.7500 Gmax 15.5288 1/A FBSC none
REM MP grid 4 3 4 Offset 0.000 0.000 0.000 No. kpts 24 Spacing 0.07
REM Total runtime: 7032.7 s
REM Overall efficiency: 75.5 %
REM
REM 4LFP.cell (a815d5d25b9f25a0a111bfe3624e67be)
REM
REM compiler GCC version 4.9.2
REM options -cpp -iprefix /scratch/UCL/applications/gcc/4.9.2/bin/../lib/gcc/x86_64-unknown-linux-gnu/4.9.2/ -mtune=corei7 -march=x86-64 -g -O2
REM COMMAND_LINE
REM seed 899601598 -872228600 1671999431 -761807048 -554554018 676588240 562690706 2073633919 -595626152 -1024278180 -59439112 611171112
REM
REM P 3|1.8|4|5|5|30:31:32(qc=5)
REM O 2|1.5|12|13|15|20:21(qc=5)
REM Li 1|1.3|8|9|10|10U:20(qc=5)
REM Fe 3|2.2|2.0|1.0|8|9|10|40:41:32(qc=5)
REM Fe d:4.0 
REM
CELL 1.54180    4.99995    7.61738    6.46315  126.95269  113.88330   88.24273
LATT -1
SFAC Li O  P  Fe 
Li     1  0.4664500000000  0.2839750000000 -0.0000000000000 1.0  -0.05
Li     1  0.0702800000000 -0.1951330000000 -0.0000000000000 1.0  -0.06
O      2  0.3861870000000 -0.4475770000000  0.3169780000000 1.0   0.06
O      2  0.0077800000000 -0.2231880000000  0.2815480000000 1.0   0.05
O      2  0.1685570000000 -0.2561200000000  0.6778850000000 1.0   0.06
O      2  0.5533720000000 -0.0148870000000  0.7123620000000 1.0   0.04
O      2  1.0692090000000  0.2354450000000  0.6830220000000 1.0   0.06
O      2  0.7262320000000  0.4952640000000  0.7184520000000 1.0   0.05
O      2  0.4906720000000  0.0659950000000  0.3221150000000 1.0   0.06
O      2  0.8410110000000  0.2727510000000  0.2876380000000 1.0   0.04
P      3  0.2799440000000 -0.2372160000000  0.4963730000000 1.0  -0.01
P      3  0.7835710000000  0.2664110000000  0.5036270000000 1.0  -0.01
Fe     4 -0.2261570000000 -0.0919520000000 -0.5079200000000 1.0   3.86
Fe     4  0.2817630000000  0.4159680000000  0.5079200000000 1.0   3.86
END
