TITL 4LFP_actual-201126-150615-50c321 0.0288 289.783961 -1.21476851E+004 16.0000 16.2490 28 (Pna21) n - 1
REM
REM Run started: Thu, 26 Nov 2020 17:41:47 +0000 in /lustre/scratch/uccabz1/launch_tmp/launcher_2020-11-26-15-05-57-088871
REM CASTEP 20.1 from code version af48c487+ pr-geom-scf-spinfix Tue Jun 2 15:39:59 2020 +0100
REM Functional Perdew Burke Ernzerhof Relativity Koelling-Harmon Dispersion off
REM Cut-off 300.0000 eV Grid scale 1.7500 Gmax 15.5288 1/A FBSC none
REM MP grid 3 3 2 Offset 0.000 0.000 0.000 No. kpts 4 Spacing 0.07
REM Total runtime: 10038.3 s
REM Overall efficiency: 79.1111 %
REM
REM 4LFP_actual.cell (cb690b6ff984803026f07b083c6867a4)
REM
REM compiler GCC version 4.9.2
REM options -cpp -iprefix /lustre/shared/ucl/apps/gcc/4.9.2/bin/../lib/gcc/x86_64-unknown-linux-gnu/4.9.2/ -mtune=corei7 -march=x86-64 -g -Og
REM COMMAND_LINE
REM seed 1471262474 -855761476 2060941139 -752236155 -267496134 -2005070156 -399656809 1109388132 2031746787 93496615 -1920580518 1721314286
REM
REM P 3|1.8|4|5|5|30:31:32(qc=5)
REM O 2|1.5|12|13|15|20:21(qc=5)
REM Li 1|1.3|8|9|10|10U:20(qc=5)
REM Fe 3|2.2|2.0|1.0|8|9|10|40:41:32(qc=5)
REM Fe d:4.0 
REM
CELL 1.54180    4.89157    6.09738    9.71589   90.00000   90.00000   90.00000
LATT -1
SFAC Li O  P  Fe 
Li     1 -0.4232620000000 -0.2610030000000  0.4338770000000 1.0  -0.03
Li     1  0.0767380000000  0.2610030000000 -0.4338770000000 1.0  -0.03
Li     1 -0.4232620000000  0.2389970000000  0.0661230000000 1.0  -0.03
Li     1  0.0767380000000 -0.2389970000000 -0.0661230000000 1.0  -0.03
O      2  0.2266560000000 -0.0348660000000 -0.3845510000000 1.0   0.03
O      2  0.2300070000000 -0.4555550000000 -0.3823190000000 1.0   0.04
O      2 -0.2149530000000 -0.2484290000000 -0.3923820000000 1.0   0.02
O      2  0.1525580000000 -0.2536880000000 -0.5994510000000 1.0   0.04
O      2 -0.2733440000000  0.0348660000000  0.3845510000000 1.0   0.03
O      2 -0.2699930000000  0.4555550000000  0.3823190000000 1.0   0.04
O      2 -0.7149530000000  0.2484290000000  0.3923820000000 1.0   0.02
O      2 -0.3474420000000  0.2536880000000  0.5994510000000 1.0   0.04
O      2  0.2266560000000  0.4651340000000 -0.1154490000000 1.0   0.03
O      2  0.2300070000000  0.0444450000000 -0.1176810000000 1.0   0.04
O      2 -0.2149530000000  0.2515710000000 -0.1076180000000 1.0   0.02
O      2  0.1525580000000  0.2463120000000  0.0994510000000 1.0   0.04
O      2 -0.2733440000000 -0.4651340000000  0.1154490000000 1.0   0.03
O      2 -0.2699930000000 -0.0444450000000  0.1176810000000 1.0   0.04
O      2 -0.7149530000000 -0.2515710000000  0.1076180000000 1.0   0.02
O      2 -0.3474420000000 -0.2463120000000 -0.0994510000000 1.0   0.04
P      3  0.0910990000000 -0.2462480000000 -0.4381070000000 1.0   0.02
P      3 -0.4089010000000  0.2462480000000  0.4381070000000 1.0   0.02
P      3  0.0910990000000  0.2537520000000 -0.0618930000000 1.0   0.02
P      3 -0.4089010000000 -0.2537520000000  0.0618930000000 1.0   0.02
Fe     4 -0.4455310000000  0.0142580000000 -0.2497090000000 1.0   3.87
Fe     4  0.0544690000000 -0.0142580000000  0.2497090000000 1.0   3.87
Fe     4 -0.4455310000000 -0.4857420000000 -0.2502910000000 1.0   3.87
Fe     4  0.0544690000000  0.4857420000000  0.2502910000000 1.0   3.87
END
