TITL 4LFP_actual-201127-012707-3c0cce -0.0274 291.538246 -1.21475692E+004 16.0000 16.1757 28 (P21212) n - 1
REM
REM Run started: Fri, 27 Nov 2020 02:03:38 +0000 in /lustre/scratch/uccabz1/launch_tmp/launcher_2020-11-27-01-26-45-556528
REM CASTEP 20.1 from code version af48c487+ pr-geom-scf-spinfix Tue Jun 2 15:39:59 2020 +0100
REM Functional Perdew Burke Ernzerhof Relativity Koelling-Harmon Dispersion off
REM Cut-off 300.0000 eV Grid scale 1.7500 Gmax 15.5288 1/A FBSC none
REM MP grid 3 3 2 Offset 0.000 0.000 0.000 No. kpts 4 Spacing 0.07
REM Total runtime: 2341.43 s
REM Overall efficiency: 71.75 %
REM
REM 4LFP_actual.cell (cb690b6ff984803026f07b083c6867a4)
REM
REM compiler GCC version 4.9.2
REM options -cpp -iprefix /lustre/shared/ucl/apps/gcc/4.9.2/bin/../lib/gcc/x86_64-unknown-linux-gnu/4.9.2/ -mtune=corei7 -march=x86-64 -g -Og
REM COMMAND_LINE
REM seed -1555799695 8571302 -1578476293 -1638807410 1823770542 1257788913 2014831602 1854198873 904528452 2063998211 -463327743 129767532
REM
REM P 3|1.8|4|5|5|30:31:32(qc=5)
REM O 2|1.5|12|13|15|20:21(qc=5)
REM Li 1|1.3|8|9|10|10U:20(qc=5)
REM Fe 3|2.2|2.0|1.0|8|9|10|40:41:32(qc=5)
REM Fe d:4.0 
REM
CELL 1.54180    6.19403    6.10932    7.70423   90.00000   90.00000   90.00000
LATT -1
SFAC Li O  P  Fe 
Li     1  0.5207420000000 -0.2360360000000 -0.4901220000000 1.0  -0.02
Li     1 -0.5207420000000  0.2360360000000 -0.4901220000000 1.0  -0.02
Li     1 -0.0207420000000  0.2639640000000  0.4901220000000 1.0  -0.02
Li     1  0.0207420000000 -0.2639640000000  0.4901220000000 1.0  -0.02
O      2 -0.4380220000000 -0.1939710000000  0.2464680000000 1.0   0.05
O      2 -0.0390270000000 -0.2071830000000  0.2441360000000 1.0   0.04
O      2 -0.2462200000000 -0.4801860000000  0.4233670000000 1.0   0.01
O      2 -0.2528200000000 -0.5071400000000  0.0854340000000 1.0   0.05
O      2  0.4380220000000  0.1939710000000  0.2464680000000 1.0   0.05
O      2  0.0390270000000  0.2071830000000  0.2441360000000 1.0   0.04
O      2  0.2462200000000  0.4801860000000  0.4233670000000 1.0   0.01
O      2  0.2528200000000  0.5071400000000  0.0854340000000 1.0   0.05
O      2 -0.0619780000000  0.3060290000000 -0.2464680000000 1.0   0.05
O      2 -0.4609730000000  0.2928170000000 -0.2441360000000 1.0   0.04
O      2 -0.2537800000000  0.0198140000000 -0.4233670000000 1.0   0.01
O      2 -0.2471800000000 -0.0071400000000 -0.0854340000000 1.0   0.05
O      2  0.0619780000000 -0.3060290000000 -0.2464680000000 1.0   0.05
O      2  0.4609730000000 -0.2928170000000 -0.2441360000000 1.0   0.04
O      2  0.2537800000000 -0.0198140000000 -0.4233670000000 1.0   0.01
O      2  0.2471800000000  0.0071400000000 -0.0854340000000 1.0   0.05
P      3 -0.2430190000000 -0.3551200000000  0.2480670000000 1.0   0.01
P      3  0.2430190000000  0.3551200000000  0.2480670000000 1.0   0.01
P      3 -0.2569810000000  0.1448800000000 -0.2480670000000 1.0   0.01
P      3  0.2569810000000 -0.1448800000000 -0.2480670000000 1.0   0.01
Fe     4  0.2631330000000 -0.1533850000000  0.1479900000000 1.0   3.85
Fe     4 -0.2631330000000  0.1533850000000  0.1479900000000 1.0   3.85
Fe     4  0.2368670000000  0.3466150000000 -0.1479900000000 1.0   3.85
Fe     4 -0.2368670000000 -0.3466150000000 -0.1479900000000 1.0   3.85
END
