TITL 4LFP-201124-072204-03cfe4 1.1704 166.866755 -6.06997345E+003 7.88009 8.02478 14 (P-1) n - 1
REM
REM Run started: Tue, 24 Nov 2020 10:40:22 +0000 in /scratch/scratch/uccabz1/launch_tmp/launcher_2020-11-24-10-23-05-816798
REM CASTEP 19.11| from code version Version unavailable
REM Functional Perdew Burke Ernzerhof Relativity Koelling-Harmon Dispersion off
REM Cut-off 300.0000 eV Grid scale 1.7500 Gmax 15.5288 1/A FBSC none
REM MP grid 3 6 2 Offset 0.000 0.000 0.000 No. kpts 18 Spacing 0.07
REM Total runtime: 9518.19 s
REM Overall efficiency: 85.1818 %
REM
REM
REM
REM compiler GCC version 4.9.2
REM options -cpp -iprefix /lustre/shared/ucl/apps/gcc/4.9.2/bin/../lib/gcc/x86_64-unknown-linux-gnu/4.9.2/ -mtune=corei7 -march=x86-64 -g -Og
REM COMMAND_LINE
REM seed 717380407 -349695287 -421667324 222780079 1641165327 -1650359969 886951508 -1022167187 -6966842 1995484247 631477627 -993721816
REM
REM P 3|1.8|4|5|5|30:31:32(qc=5)
REM O 2|1.5|12|13|15|20:21(qc=5)
REM Li 1|1.3|8|9|10|10U:20(qc=5)
REM Fe 3|2.2|2.0|1.0|8|9|10|40:41:32(qc=5)
REM Fe d:4.0 
REM
CELL 1.54180    6.22112    2.78582   13.87007   63.00962  127.90113  112.99435
LATT -1
SFAC Li O  P  Fe 
Li     1 -0.2499780000000 -0.3146330000000 -0.4190280000000 1.0  -0.01
Li     1  0.2499780000000  0.3146330000000  0.4190280000000 1.0  -0.01
O      2  0.4213580000000  0.3864450000000 -0.4180880000000 1.0   0.00
O      2  0.5372820000000  0.5904110000000 -0.2270250000000 1.0  -0.00
O      2  0.0972020000000 -0.0150260000000 -0.3300050000000 1.0   0.00
O      2 -0.4213580000000 -0.3864450000000  0.4180880000000 1.0   0.00
O      2 -0.5372820000000 -0.5904110000000  0.2270250000000 1.0  -0.00
O      2 -0.0972020000000  0.0150260000000  0.3300050000000 1.0   0.00
O      2  0.0000000000000  0.0000000000000  0.0000000000000 1.0   0.22
O      2  0.5000000000000  0.5000000000000  0.0000000000000 1.0   0.22
P      3  0.3770040000000  0.1347340000000 -0.3076940000000 1.0  -0.00
P      3 -0.3770040000000 -0.1347340000000  0.3076940000000 1.0  -0.00
Fe     4 -0.2223900000000  0.2202120000000  0.0252240000000 1.0   3.73
Fe     4  0.2223900000000 -0.2202120000000 -0.0252240000000 1.0   3.73
END
