TITL 4LFP-201124-120001-ccd64c -0.0065 169.427514 -6.07322487E+003 0.375917E-13 8.06413 14 (P2/m) n - 1
REM
REM Run started: Tue, 24 Nov 2020 12:51:11 +0000 in /lustre/scratch/uccabz1/launch_tmp/launcher_2020-11-24-11-59-57-903680
REM CASTEP 20.1 from code version af48c487+ pr-geom-scf-spinfix Tue Jun 2 15:39:59 2020 +0100
REM Functional Perdew Burke Ernzerhof Relativity Koelling-Harmon Dispersion off
REM Cut-off 300.0000 eV Grid scale 1.7500 Gmax 15.5288 1/A FBSC none
REM MP grid 4 4 2 Offset 0.000 0.000 0.000 No. kpts 8 Spacing 0.07
REM Total runtime: 3308.04 s
REM Overall efficiency: 77.625 %
REM
REM 4LFP.cell (a815d5d25b9f25a0a111bfe3624e67be)
REM
REM compiler GCC version 4.9.2
REM options -cpp -iprefix /lustre/shared/ucl/apps/gcc/4.9.2/bin/../lib/gcc/x86_64-unknown-linux-gnu/4.9.2/ -mtune=corei7 -march=x86-64 -g -Og
REM COMMAND_LINE
REM seed -1942221038 -197715075 1817488866 811639299 1640447532 -1238457335 -224809325 -2114918051 1544714481 -599701585 -681118934 48580887
REM
REM P 3|1.8|4|5|5|30:31:32(qc=5)
REM O 2|1.5|12|13|15|20:21(qc=5)
REM Li 1|1.3|8|9|10|10U:20(qc=5)
REM Fe 3|2.2|2.0|1.0|8|9|10|40:41:32(qc=5)
REM Fe d:4.0 
REM
CELL 1.54180    4.14415    4.08407   10.01650   90.00000   90.00000   91.98670
LATT -1
SFAC Li O  P  Fe 
Li     1  0.2717280000000 -0.4003950000000 -0.2209710000000 1.0   0.01
Li     1  0.2717280000000 -0.4003950000000  0.2209710000000 1.0   0.01
O      2 -0.0170090000000 -0.0972810000000 -0.1612850000000 1.0  -0.06
O      2 -0.4438650000000  0.2888610000000 -0.1627370000000 1.0  -0.06
O      2 -0.0182890000000  0.3308360000000 -0.3511770000000 1.0   0.04
O      2 -0.4364670000000 -0.1422440000000 -0.3513140000000 1.0   0.04
O      2 -0.0170090000000 -0.0972810000000  0.1612850000000 1.0  -0.06
O      2 -0.4438650000000  0.2888610000000  0.1627370000000 1.0  -0.06
O      2 -0.0182890000000  0.3308360000000  0.3511770000000 1.0   0.04
O      2 -0.4364670000000 -0.1422440000000  0.3513140000000 1.0   0.04
P      3 -0.2289330000000  0.0955490000000 -0.2634210000000 1.0   0.00
P      3 -0.2289330000000  0.0955490000000  0.2634210000000 1.0   0.00
Fe     4 -0.2303900000000  0.1000000000000  0.0000000000000 1.0  -3.78
Fe     4 -0.2172360000000  0.6012370000000 -0.5000000000000 1.0   3.83
END
