TITL 4LFP-201124-075625-c57dab 0.0348 172.706421 -6.07447048E+003 8.00000 8.14066 14 (P21) n - 1
REM
REM Run started: Tue, 24 Nov 2020 09:29:47 +0000 in /scratch/scratch/uccabz1/launch_tmp/launcher_2020-11-24-07-56-22-984039
REM CASTEP 19.11| from code version Version unavailable
REM Functional Perdew Burke Ernzerhof Relativity Koelling-Harmon Dispersion off
REM Cut-off 300.0000 eV Grid scale 1.7500 Gmax 15.5288 1/A FBSC none
REM MP grid 3 3 3 Offset 0.000 0.000 0.000 No. kpts 10 Spacing 0.07
REM Total runtime: 6117.26 s
REM Overall efficiency: 73.8182 %
REM
REM 4LFP.cell (a815d5d25b9f25a0a111bfe3624e67be)
REM
REM compiler GCC version 4.9.2
REM options -cpp -iprefix /scratch/UCL/applications/gcc/4.9.2/bin/../lib/gcc/x86_64-unknown-linux-gnu/4.9.2/ -mtune=corei7 -march=x86-64 -g -O2
REM COMMAND_LINE
REM seed -212905096 1982530410 1781046263 2110989326 2120972986 -1395783895 1629798427 -2107722942 -1820567101 -1565864832 -322220067 -73918568
REM
REM P 3|1.8|4|5|5|30:31:32(qc=5)
REM O 2|1.5|12|13|15|20:21(qc=5)
REM Li 1|1.3|8|9|10|10U:20(qc=5)
REM Fe 3|2.2|2.0|1.0|8|9|10|40:41:32(qc=5)
REM Fe d:4.0 
REM
CELL 1.54180    5.12235    5.20316    6.49223   90.00000   90.00000   86.47602
LATT -1
SFAC Li O  P  Fe 
Li     1 -0.1909870000000 -0.3299710000000  0.3587440000000 1.0  -0.04
Li     1  0.1909870000000  0.3299710000000 -0.1412560000000 1.0  -0.04
O      2 -0.1659050000000  0.2755730000000  0.2880990000000 1.0   0.03
O      2 -0.1499540000000  0.2321530000000 -0.1078260000000 1.0   0.04
O      2 -0.5830880000000  0.2375860000000  0.0771250000000 1.0   0.03
O      2 -0.3206730000000  0.6440860000000  0.0679440000000 1.0   0.03
O      2  0.1659050000000 -0.2755730000000 -0.2119010000000 1.0   0.03
O      2  0.1499540000000 -0.2321530000000 -0.6078260000000 1.0   0.04
O      2  0.5830880000000 -0.2375860000000 -0.4228750000000 1.0   0.03
O      2  0.3206730000000 -0.6440860000000 -0.4320560000000 1.0   0.03
P      3 -0.3064200000000  0.3458850000000  0.0823750000000 1.0   0.01
P      3  0.3064200000000 -0.3458850000000 -0.4176250000000 1.0   0.01
Fe     4 -0.2123770000000 -0.1291410000000 -0.1690170000000 1.0   3.90
Fe     4  0.2123770000000  0.1291410000000  0.3309830000000 1.0   3.90
END
