TITL 4LFP-201124-135714-3abc31 0.0635 158.279401 -6.07338029E+003 8.00000 8.09024 14 (Pc) n - 1
REM
REM Run started: Tue, 24 Nov 2020 14:47:22 +0000 in /scratch/scratch/uccabz1/launch_tmp/launcher_2020-11-24-13-52-11-810650
REM CASTEP 19.11| from code version Version unavailable
REM Functional Perdew Burke Ernzerhof Relativity Koelling-Harmon Dispersion off
REM Cut-off 300.0000 eV Grid scale 1.7500 Gmax 15.5288 1/A FBSC none
REM MP grid 4 4 3 Offset 0.000 0.000 0.000 No. kpts 16 Spacing 0.07
REM Total runtime: 3579.53 s
REM Overall efficiency: 89.1667 %
REM
REM 4LFP.cell (a815d5d25b9f25a0a111bfe3624e67be)
REM
REM compiler GCC version 4.9.2
REM options -cpp -iprefix /scratch/UCL/applications/gcc/4.9.2/bin/../lib/gcc/x86_64-unknown-linux-gnu/4.9.2/ -mtune=corei7 -march=x86-64 -g -O2
REM COMMAND_LINE
REM seed 1449375905 1417337912 1219818703 1750933801 1971716893 -99653430 710367554 -1607629288 -531149918 -255626113 1238211175 196672359
REM
REM P 3|1.8|4|5|5|30:31:32(qc=5)
REM O 2|1.5|12|13|15|20:21(qc=5)
REM Li 1|1.3|8|9|10|10U:20(qc=5)
REM Fe 3|2.2|2.0|1.0|8|9|10|40:41:32(qc=5)
REM Fe d:4.0 
REM
CELL 1.54180    5.18808    5.65079    6.46894   90.00000   90.00000  123.42646
LATT -1
SFAC Li O  P  Fe 
Li     1 -0.1603120000000  0.2541490000000  0.2363490000000 1.0  -0.04
Li     1 -0.1603120000000 -0.2458510000000 -0.2363490000000 1.0  -0.04
O      2  0.1128270000000  0.4247070000000 -0.5192710000000 1.0   0.04
O      2  0.4498340000000  0.4140870000000 -0.2355690000000 1.0   0.04
O      2  0.1608090000000  0.6480360000000 -0.1664930000000 1.0   0.05
O      2 -0.1439600000000  0.1168060000000 -0.2015710000000 1.0   0.04
O      2  0.1128270000000 -0.0752930000000  0.5192710000000 1.0   0.04
O      2  0.4498340000000 -0.0859130000000  0.2355690000000 1.0   0.04
O      2  0.1608090000000  0.1480360000000  0.1664930000000 1.0   0.05
O      2 -0.1439600000000 -0.3831940000000  0.2015710000000 1.0   0.04
P      3  0.1454200000000  0.4007820000000 -0.2842190000000 1.0   0.01
P      3  0.1454200000000 -0.0992180000000  0.2842190000000 1.0   0.01
Fe     4  0.4471450000000  0.0565780000000 -0.2542220000000 1.0   3.86
Fe     4 -0.5528550000000 -0.4434220000000  0.2542220000000 1.0   3.86
END
