TITL 4LFP-201124-070015-324a96 0.0481 162.937683 -6.07394400E+003 8.00000 8.12883 14 (Cc) n - 1
REM
REM Run started: Tue, 24 Nov 2020 08:37:06 +0000 in /scratch/scratch/uccabz1/launch_tmp/launcher_2020-11-24-07-00-14-031503
REM CASTEP 19.11| from code version Version unavailable
REM Functional Perdew Burke Ernzerhof Relativity Koelling-Harmon Dispersion off
REM Cut-off 300.0000 eV Grid scale 1.7500 Gmax 15.5288 1/A FBSC none
REM MP grid 4 4 2 Offset 0.000 0.000 0.000 No. kpts 16 Spacing 0.07
REM Total runtime: 6410 s
REM Overall efficiency: 95.7143 %
REM
REM 4LFP.cell (a815d5d25b9f25a0a111bfe3624e67be)
REM
REM compiler GCC version 4.9.2
REM options -cpp -iprefix /scratch/UCL/applications/gcc/4.9.2/bin/../lib/gcc/x86_64-unknown-linux-gnu/4.9.2/ -mtune=corei7 -march=x86-64 -g -O2
REM COMMAND_LINE
REM seed -1650630090 1389719105 1600601395 895997638 -546522128 461706908 713960668 -587573152 -921354192 573139121 -390511099 -1677835081
REM
REM P 3|1.8|4|5|5|30:31:32(qc=5)
REM O 2|1.5|12|13|15|20:21(qc=5)
REM Li 1|1.3|8|9|10|10U:20(qc=5)
REM Fe 3|2.2|2.0|1.0|8|9|10|40:41:32(qc=5)
REM Fe d:4.0 
REM
CELL 1.54180    4.77685    5.22746    7.88384  109.02142   90.00000  117.18722
LATT -1
SFAC Li O  P  Fe 
Li     1 -0.1964900000000 -0.4368930000000  0.3154730000000 1.0  -0.04
Li     1 -0.2404020000000 -0.4368930000000 -0.1845270000000 1.0  -0.04
O      2  0.4217270000000  0.1890480000000  0.2606200000000 1.0   0.03
O      2  0.0814490000000 -0.3959970000000  0.1409720000000 1.0   0.03
O      2  0.1792510000000 -0.0984530000000 -0.0723020000000 1.0   0.04
O      2  0.6227940000000 -0.1639890000000  0.0458000000000 1.0   0.04
O      2  0.7673200000000  0.1890480000000 -0.2393800000000 1.0   0.03
O      2  0.5225540000000 -0.3959970000000 -0.3590280000000 1.0   0.03
O      2  0.7222960000000 -0.0984530000000 -0.5723020000000 1.0   0.04
O      2  0.2132170000000 -0.1639890000000 -0.4542000000000 1.0   0.04
P      3  0.3344030000000 -0.1149000000000  0.0963230000000 1.0   0.01
P      3  0.5506970000000 -0.1149000000000 -0.4036770000000 1.0   0.01
Fe     4  0.1860080000000  0.1880920000000  0.4922000000000 1.0   3.88
Fe     4  0.0020840000000  0.1880920000000 -0.0078000000000 1.0   3.88
END
