TITL 4LFP_actual-201127-000705-87c356 -0.0334 295.910607 -1.21471591E+004 16.0000 16.2566 28 (Pca21) n - 1
REM
REM Run started: Fri, 27 Nov 2020 01:02:15 +0000 in /lustre/scratch/uccabz1/launch_tmp/launcher_2020-11-27-00-07-01-163648
REM CASTEP 20.1 from code version af48c487+ pr-geom-scf-spinfix Tue Jun 2 15:39:59 2020 +0100
REM Functional Perdew Burke Ernzerhof Relativity Koelling-Harmon Dispersion off
REM Cut-off 300.0000 eV Grid scale 1.7500 Gmax 15.5288 1/A FBSC none
REM MP grid 3 3 2 Offset 0.000 0.000 0.000 No. kpts 4 Spacing 0.07
REM Total runtime: 4041.42 s
REM Overall efficiency: 81.6667 %
REM
REM 4LFP_actual.cell (cb690b6ff984803026f07b083c6867a4)
REM
REM compiler GCC version 4.9.2
REM options -cpp -iprefix /lustre/shared/ucl/apps/gcc/4.9.2/bin/../lib/gcc/x86_64-unknown-linux-gnu/4.9.2/ -mtune=corei7 -march=x86-64 -g -Og
REM COMMAND_LINE
REM seed -2137771825 -1794469132 505535484 1285448777 -273701140 -734787169 180748766 2069408195 -1487196912 -766330011 -1510657700 915219782
REM
REM P 3|1.8|4|5|5|30:31:32(qc=5)
REM O 2|1.5|12|13|15|20:21(qc=5)
REM Li 1|1.3|8|9|10|10U:20(qc=5)
REM Fe 3|2.2|2.0|1.0|8|9|10|40:41:32(qc=5)
REM Fe d:4.0 
REM
CELL 1.54180    5.89580    6.45906    7.77048   90.00000   90.00000   90.00000
LATT -1
SFAC Li O  P  Fe 
Li     1 -0.1528220000000  0.3169040000000 -0.0086390000000 1.0  -0.03
Li     1  0.3471780000000 -0.3169040000000  0.0086390000000 1.0  -0.03
Li     1 -0.1528220000000 -0.1830960000000  0.0086390000000 1.0  -0.03
Li     1  0.3471780000000  0.1830960000000 -0.0086390000000 1.0  -0.03
O      2 -0.5740000000000 -0.2429730000000  0.2390880000000 1.0   0.04
O      2 -0.6888040000000  0.1382690000000  0.2537880000000 1.0   0.02
O      2 -0.3474160000000  0.0147390000000  0.4196090000000 1.0   0.05
O      2 -0.3538880000000  0.0338520000000  0.0818930000000 1.0   0.01
O      2 -0.0740000000000  0.2429730000000 -0.2390880000000 1.0   0.04
O      2 -0.1888040000000 -0.1382690000000 -0.2537880000000 1.0   0.02
O      2  0.1525840000000 -0.0147390000000 -0.4196090000000 1.0   0.05
O      2  0.1461120000000 -0.0338520000000 -0.0818930000000 1.0   0.01
O      2 -0.5740000000000  0.2570270000000 -0.2390880000000 1.0   0.04
O      2 -0.6888040000000  0.6382690000000 -0.2537880000000 1.0   0.02
O      2 -0.3474160000000  0.5147390000000 -0.4196090000000 1.0   0.05
O      2 -0.3538880000000  0.5338520000000 -0.0818930000000 1.0   0.01
O      2 -0.0740000000000 -0.2570270000000  0.2390880000000 1.0   0.04
O      2 -0.1888040000000 -0.6382690000000  0.2537880000000 1.0   0.02
O      2  0.1525840000000 -0.5147390000000  0.4196090000000 1.0   0.05
O      2  0.1461120000000 -0.5338520000000  0.0818930000000 1.0   0.01
P      3 -0.4856470000000 -0.0177560000000  0.2498120000000 1.0   0.01
P      3  0.0143530000000  0.0177560000000 -0.2498120000000 1.0   0.01
P      3 -0.4856470000000  0.4822440000000 -0.2498120000000 1.0   0.01
P      3  0.0143530000000 -0.4822440000000  0.2498120000000 1.0   0.01
Fe     4 -0.5034440000000  0.4729820000000  0.3351840000000 1.0   3.90
Fe     4 -0.0034440000000 -0.4729820000000 -0.3351840000000 1.0   3.90
Fe     4 -0.5034440000000 -0.0270180000000 -0.3351840000000 1.0   3.90
Fe     4 -0.0034440000000  0.0270180000000  0.3351840000000 1.0   3.90
END
