TITL 4LFP-201124-133149-ce201d -0.0648 172.279701 -6.07375326E+003 8.00000 8.16783 14 (C2) n - 1
REM
REM Run started: Tue, 24 Nov 2020 15:12:38 +0000 in /lustre/scratch/uccabz1/launch_tmp/launcher_2020-11-24-13-31-42-692681
REM CASTEP 20.1 from code version af48c487+ pr-geom-scf-spinfix Tue Jun 2 15:39:59 2020 +0100
REM Functional Perdew Burke Ernzerhof Relativity Koelling-Harmon Dispersion off
REM Cut-off 300.0000 eV Grid scale 1.7500 Gmax 15.5288 1/A FBSC none
REM MP grid 4 4 2 Offset 0.000 0.000 0.000 No. kpts 14 Spacing 0.07
REM Total runtime: 6164.43 s
REM Overall efficiency: 93.1 %
REM
REM 4LFP.cell (a815d5d25b9f25a0a111bfe3624e67be)
REM
REM compiler GCC version 4.9.2
REM options -cpp -iprefix /lustre/shared/ucl/apps/gcc/4.9.2/bin/../lib/gcc/x86_64-unknown-linux-gnu/4.9.2/ -mtune=corei7 -march=x86-64 -g -Og
REM COMMAND_LINE
REM seed 951147063 -1957192422 -427728387 2017077241 -1076528434 -1130844700 -992887660 -292807208 1032871190 -2041012140 -1732558293 1497731618
REM
REM P 3|1.8|4|5|5|30:31:32(qc=5)
REM O 2|1.5|12|13|15|20:21(qc=5)
REM Li 1|1.3|8|9|10|10U:20(qc=5)
REM Fe 3|2.2|2.0|1.0|8|9|10|40:41:32(qc=5)
REM Fe d:4.0 
REM
CELL 1.54180    4.90744    4.90744    8.08920  101.46663  102.05961  109.14268
LATT -1
SFAC Li O  P  Fe 
Li     1 -0.3012280000000  0.5818370000000  0.5128600000000 1.0  -0.02
Li     1  0.0689780000000 -0.8140870000000 -0.5128600000000 1.0  -0.02
O      2  0.1399570000000  0.8842420000000  0.3224770000000 1.0   0.04
O      2  0.3635960000000  0.4861160000000  0.3009980000000 1.0   0.04
O      2 -0.1615120000000  0.3445140000000  0.3267440000000 1.0   0.04
O      2 -0.0665620000000  0.4565300000000  0.0454910000000 1.0   0.05
O      2  0.5617650000000 -0.1825200000000 -0.3224770000000 1.0   0.04
O      2  0.1851190000000  0.0625990000000 -0.3009980000000 1.0   0.04
O      2  0.0177700000000 -0.4882560000000 -0.3267440000000 1.0   0.04
O      2  0.4110400000000 -0.1120530000000 -0.0454910000000 1.0   0.05
P      3  0.0659390000000  0.5408810000000  0.2473260000000 1.0   0.01
P      3  0.2935540000000 -0.1813880000000 -0.2473260000000 1.0   0.01
Fe     4 -0.0841380000000  0.2152360000000 -0.1779050000000 1.0   3.83
Fe     4  0.3931410000000  0.0937660000000  0.1779050000000 1.0   3.83
END
