TITL 4LFP-201124-101301-caaf3d 0.0127 185.271954 -6.07379497E+003 8.00000 8.22241 14 (P4/n) n - 1
REM
REM Run started: Tue, 24 Nov 2020 10:38:50 +0000 in /lustre/scratch/uccabz1/launch_tmp/launcher_2020-11-24-10-12-59-419542
REM CASTEP 20.1 from code version af48c487+ pr-geom-scf-spinfix Tue Jun 2 15:39:59 2020 +0100
REM Functional Perdew Burke Ernzerhof Relativity Koelling-Harmon Dispersion off
REM Cut-off 300.0000 eV Grid scale 1.7500 Gmax 15.5288 1/A FBSC none
REM MP grid 3 3 3 Offset 0.000 0.000 0.000 No. kpts 6 Spacing 0.07
REM Total runtime: 1796.29 s
REM Overall efficiency: 91.3333 %
REM
REM 4LFP.cell (a815d5d25b9f25a0a111bfe3624e67be)
REM
REM compiler GCC version 4.9.2
REM options -cpp -iprefix /lustre/shared/ucl/apps/gcc/4.9.2/bin/../lib/gcc/x86_64-unknown-linux-gnu/4.9.2/ -mtune=corei7 -march=x86-64 -g -Og
REM COMMAND_LINE
REM seed 1869284618 -322535799 860016947 894235053 -150970362 1065496716 626218869 -221223735 1400761211 -1937269276 -514064522 265813680
REM
REM P 3|1.8|4|5|5|30:31:32(qc=5)
REM O 2|1.5|12|13|15|20:21(qc=5)
REM Li 1|1.3|8|9|10|10U:20(qc=5)
REM Fe 3|2.2|2.0|1.0|8|9|10|40:41:32(qc=5)
REM Fe d:4.0 
REM
CELL 1.54180    4.93515    6.12710    6.12710   90.00000   90.00000   90.00000
LATT -1
SFAC Li O  P  Fe 
Li     1 -0.2408820000000  0.5000000000000 -0.0000000000000 1.0  -0.02
Li     1 -0.2408820000000 -0.0000000000000 -0.5000000000000 1.0  -0.02
O      2  0.4534540000000  0.3179880000000  0.0833530000000 1.0   0.05
O      2  0.0641170000000  0.4163230000000 -0.1819240000000 1.0   0.05
O      2  0.4534540000000 -0.3179880000000 -0.0833530000000 1.0   0.05
O      2  0.0641170000000 -0.4163230000000  0.1819240000000 1.0   0.05
O      2  0.4534540000000 -0.0833530000000  0.3179880000000 1.0   0.05
O      2  0.0641170000000  0.1819240000000  0.4163230000000 1.0   0.05
O      2  0.4534540000000  0.0833530000000 -0.3179880000000 1.0   0.05
O      2  0.0641170000000 -0.1819240000000 -0.4163230000000 1.0   0.05
P      3  0.2587760000000  0.0000000000000 -0.5000000000000 1.0   0.01
P      3  0.2587760000000  0.5000000000000  0.0000000000000 1.0   0.01
Fe     4  0.1058950000000  0.5000000000000 -0.5000000000000 1.0   3.82
Fe     4  0.4135950000000 -0.0000000000000 -0.0000000000000 1.0   3.82
END
