TITL 4LFP_actual-201127-014013-aa9787 -0.0547 316.504411 -1.21484091E+004 16.0000 16.3340 28 (Cc) n - 1
REM
REM Run started: Fri, 27 Nov 2020 06:16:06 +0000 in /lustre/scratch/uccabz1/launch_tmp/launcher_2020-11-27-01-40-07-092193
REM CASTEP 20.1 from code version af48c487+ pr-geom-scf-spinfix Tue Jun 2 15:39:59 2020 +0100
REM Functional Perdew Burke Ernzerhof Relativity Koelling-Harmon Dispersion off
REM Cut-off 300.0000 eV Grid scale 1.7500 Gmax 15.5288 1/A FBSC none
REM MP grid 3 3 3 Offset 0.000 0.000 0.000 No. kpts 10 Spacing 0.07
REM Total runtime: 18039.8 s
REM Overall efficiency: 79 %
REM
REM 4LFP_actual.cell (cb690b6ff984803026f07b083c6867a4)
REM
REM compiler GCC version 4.9.2
REM options -cpp -iprefix /lustre/shared/ucl/apps/gcc/4.9.2/bin/../lib/gcc/x86_64-unknown-linux-gnu/4.9.2/ -mtune=corei7 -march=x86-64 -g -Og
REM COMMAND_LINE
REM seed 66887875 1121215189 1439138855 -1688184401 -1821583005 -30192497 -1454555565 -298480556 -8968669 1705050582 1269293460 1732946457
REM
REM P 3|1.8|4|5|5|30:31:32(qc=5)
REM O 2|1.5|12|13|15|20:21(qc=5)
REM Li 1|1.3|8|9|10|10U:20(qc=5)
REM Fe 3|2.2|2.0|1.0|8|9|10|40:41:32(qc=5)
REM Fe d:4.0 
REM
CELL 1.54180    7.09285    7.09285    8.14297  118.25220  116.54711   86.75887
LATT -1
SFAC Li O  P  Fe 
Li     1  0.2714730000000  0.4095370000000  0.4999860000000 1.0  -0.04
Li     1  0.0904490000000 -0.2714870000000 -0.0000140000000 1.0  -0.04
Li     1  0.2480620000000 -0.1157780000000 -0.2465740000000 1.0  -0.03
Li     1 -0.1307960000000  0.0053640000000  0.2534260000000 1.0  -0.03
O      2  0.0081900000000 -0.3060530000000  0.4834480000000 1.0   0.02
O      2  0.1660960000000 -0.5610160000000  0.2567820000000 1.0   0.04
O      2 -0.2054530000000 -0.5226810000000  0.0754820000000 1.0   0.05
O      2  0.0958770000000 -0.1951910000000  0.2662490000000 1.0   0.03
O      2 -0.2104990000000 -0.0247420000000 -0.0165520000000 1.0   0.02
O      2 -0.1822020000000 -0.4093140000000 -0.2432180000000 1.0   0.04
O      2 -0.4018360000000 -0.2190650000000 -0.4245180000000 1.0   0.05
O      2 -0.5385600000000 -0.3296280000000 -0.2337510000000 1.0   0.03
O      2  0.5902100000000 -0.0924270000000  0.2222430000000 1.0   0.05
O      2  0.4236670000000  0.1912840000000  0.4133040000000 1.0   0.05
O      2  0.5644120000000  0.2624800000000  0.2067720000000 1.0   0.06
O      2  0.2269100000000 -0.0271020000000  0.0074920000000 1.0   0.03
O      2  0.3146700000000  0.1320330000000 -0.2777570000000 1.0   0.05
O      2  0.2220200000000  0.4896370000000 -0.0866960000000 1.0   0.05
O      2 -0.0557080000000  0.1423590000000 -0.2932280000000 1.0   0.06
O      2  0.0345940000000  0.2805820000000 -0.4925080000000 1.0   0.03
P      3  0.0184410000000 -0.3907530000000  0.2738900000000 1.0   0.01
P      3 -0.3353570000000 -0.2445510000000 -0.2261100000000 1.0   0.01
P      3  0.4523430000000  0.0852050000000  0.2098040000000 1.0   0.01
P      3  0.1245990000000  0.2574610000000 -0.2901960000000 1.0   0.01
Fe     4 -0.5702100000000 -0.0196730000000  0.5031610000000 1.0   3.86
Fe     4 -0.4771650000000  0.5733710000000  0.0031610000000 1.0   3.86
Fe     4 -0.2044630000000 -0.5073700000000 -0.5324870000000 1.0   3.86
Fe     4 -0.0251160000000  0.1719770000000 -0.0324870000000 1.0   3.86
END
