TITL 4LFP-201124-143427-e21371 0.0145 144.798264 -6.06132720E+003 8.92259 9.11822 14 (P2/c) n - 1
REM
REM Run started: Tue, 24 Nov 2020 14:53:25 +0000 in /lustre/scratch/uccabz1/launch_tmp/launcher_2020-11-24-14-34-19-827106
REM CASTEP 20.1 from code version af48c487+ pr-geom-scf-spinfix Tue Jun 2 15:39:59 2020 +0100
REM Functional Perdew Burke Ernzerhof Relativity Koelling-Harmon Dispersion off
REM Cut-off 300.0000 eV Grid scale 1.7500 Gmax 15.5288 1/A FBSC none
REM MP grid 5 3 2 Offset 0.000 0.000 0.000 No. kpts 8 Spacing 0.07
REM Total runtime: 1371.71 s
REM Overall efficiency: 91.4 %
REM
REM 4LFP.cell (a815d5d25b9f25a0a111bfe3624e67be)
REM
REM compiler GCC version 4.9.2
REM options -cpp -iprefix /lustre/shared/ucl/apps/gcc/4.9.2/bin/../lib/gcc/x86_64-unknown-linux-gnu/4.9.2/ -mtune=corei7 -march=x86-64 -g -Og
REM COMMAND_LINE
REM seed -1444717258 -1981973575 1394182569 -1040214356 587342320 283244647 961056330 -429072315 1603431779 107825195 -1244941425 -2052571486
REM
REM P 3|1.8|4|5|5|30:31:32(qc=5)
REM O 2|1.5|12|13|15|20:21(qc=5)
REM Li 1|1.3|8|9|10|10U:20(qc=5)
REM Fe 3|2.2|2.0|1.0|8|9|10|40:41:32(qc=5)
REM Fe d:4.0 
REM
CELL 1.54180    3.03961    5.15052    9.26297   90.00000   90.00000   86.85193
LATT -1
SFAC Li O  P  Fe 
Li     1 -0.2500000000000  0.2500000000000  0.2635860000000 1.0  -0.01
Li     1  0.2500000000000 -0.2500000000000 -0.2635860000000 1.0  -0.01
O      2  0.7561890000000 -0.0292620000000 -0.3892540000000 1.0  -0.01
O      2  0.2569020000000  0.0094820000000 -0.1128490000000 1.0   0.25
O      2 -1.2561890000000  0.5292620000000 -0.3892540000000 1.0  -0.01
O      2 -0.7569020000000  0.4905180000000 -0.1128490000000 1.0   0.25
O      2 -0.7561890000000  0.0292620000000  0.3892540000000 1.0  -0.01
O      2 -0.2569020000000 -0.0094820000000  0.1128490000000 1.0   0.25
O      2  1.2561890000000 -0.5292620000000  0.3892540000000 1.0  -0.01
O      2  0.7569020000000 -0.4905180000000  0.1128490000000 1.0   0.25
P      3 -0.7500000000000  0.2500000000000 -0.4866590000000 1.0  -0.02
P      3  0.7500000000000 -0.2500000000000  0.4866590000000 1.0  -0.02
Fe     4  0.2500000000000 -0.2500000000000  0.0511130000000 1.0   4.00
Fe     4 -0.2500000000000  0.2500000000000 -0.0511130000000 1.0   4.00
END
