TITL 4LFP-201124-060809-662e3f 0.0156 145.715053 -6.06937698E+003 7.99987 8.08997 14 (P-1) n - 1
REM
REM Run started: Tue, 24 Nov 2020 07:25:21 +0000 in /scratch/scratch/uccabz1/launch_tmp/launcher_2020-11-24-06-08-03-926053
REM CASTEP 19.11| from code version Version unavailable
REM Functional Perdew Burke Ernzerhof Relativity Koelling-Harmon Dispersion off
REM Cut-off 300.0000 eV Grid scale 1.7500 Gmax 15.5288 1/A FBSC none
REM MP grid 6 3 2 Offset 0.000 0.000 0.000 No. kpts 18 Spacing 0.07
REM Total runtime: 4857.46 s
REM Overall efficiency: 88.1 %
REM
REM 4LFP.cell (a815d5d25b9f25a0a111bfe3624e67be)
REM
REM compiler GCC version 4.9.2
REM options -cpp -iprefix /scratch/UCL/applications/gcc/4.9.2/bin/../lib/gcc/x86_64-unknown-linux-gnu/4.9.2/ -mtune=corei7 -march=x86-64 -g -O2
REM COMMAND_LINE
REM seed 2114625687 131303194 1474376625 -55117445 -2067115970 1906078023 -1808814526 -1162132193 1941688592 1892451526 -1204397391 -381402533
REM
REM P 3|1.8|4|5|5|30:31:32(qc=5)
REM O 2|1.5|12|13|15|20:21(qc=5)
REM Li 1|1.3|8|9|10|10U:20(qc=5)
REM Fe 3|2.2|2.0|1.0|8|9|10|40:41:32(qc=5)
REM Fe d:4.0 
REM
CELL 1.54180    2.76048    5.28861   10.06137   88.41960   96.96379   88.98800
LATT -1
SFAC Li O  P  Fe 
Li     1 -0.5163150000000  0.2574600000000 -0.0655620000000 1.0  -0.06
Li     1  0.5163150000000 -0.2574600000000  0.0655620000000 1.0  -0.06
O      2  0.3850200000000 -0.0267820000000 -0.2838900000000 1.0   0.02
O      2 -0.1939260000000  0.2572880000000 -0.4419460000000 1.0   0.01
O      2  0.3826890000000  0.4563030000000 -0.2568520000000 1.0   0.02
O      2 -0.3850200000000  0.0267820000000  0.2838900000000 1.0   0.02
O      2  0.1939260000000 -0.2572880000000  0.4419460000000 1.0   0.01
O      2 -0.3826890000000 -0.4563030000000  0.2568520000000 1.0   0.02
O      2  0.0000000000000  0.0000000000000  0.0000000000000 1.0   0.20
O      2  0.0000000000000  0.5000000000000  0.0000000000000 1.0   0.21
P      3  0.3485700000000  0.2351380000000 -0.3484860000000 1.0   0.02
P      3 -0.3485700000000 -0.2351380000000  0.3484860000000 1.0   0.02
Fe     4 -0.0660690000000 -0.2541310000000 -0.1491770000000 1.0   3.80
Fe     4  0.0660690000000  0.2541310000000  0.1491770000000 1.0   3.80
END
