TITL 4LFP_actual-201126-065333-c82e43 0.0199 310.311347 -1.21448927E+004 16.0000 16.2982 28 (C2) n - 1
REM
REM Run started: Thu, 26 Nov 2020 10:13:10 +0000 in /lustre/scratch/uccabz1/launch_tmp/launcher_2020-11-26-06-53-18-549744
REM CASTEP 20.1 from code version af48c487+ pr-geom-scf-spinfix Tue Jun 2 15:39:59 2020 +0100
REM Functional Perdew Burke Ernzerhof Relativity Koelling-Harmon Dispersion off
REM Cut-off 300.0000 eV Grid scale 1.7500 Gmax 15.5288 1/A FBSC none
REM MP grid 3 3 3 Offset 0.000 0.000 0.000 No. kpts 10 Spacing 0.07
REM Total runtime: 12840.6 s
REM Overall efficiency: 74.3846 %
REM
REM 4LFP_actual.cell (cb690b6ff984803026f07b083c6867a4)
REM
REM compiler GCC version 4.9.2
REM options -cpp -iprefix /lustre/shared/ucl/apps/gcc/4.9.2/bin/../lib/gcc/x86_64-unknown-linux-gnu/4.9.2/ -mtune=corei7 -march=x86-64 -g -Og
REM COMMAND_LINE
REM seed -763556749 1906364648 -1338979793 -775788498 -1632296667 -703039457 -1903418116 416274969 -1834759990 1628415548 -257863157 1988369508
REM
REM P 3|1.8|4|5|5|30:31:32(qc=5)
REM O 2|1.5|12|13|15|20:21(qc=5)
REM Li 1|1.3|8|9|10|10U:20(qc=5)
REM Fe 3|2.2|2.0|1.0|8|9|10|40:41:32(qc=5)
REM Fe d:4.0 
REM
CELL 1.54180    5.46438    8.06354    8.06354   61.25762   85.65453   85.65453
LATT -1
SFAC Li O  P  Fe 
Li     1 -0.2172270000000 -0.2771550000000  0.1775810000000 1.0  -0.02
Li     1  0.2172270000000 -0.1775810000000  0.2771550000000 1.0  -0.02
Li     1  0.2505650000000 -0.3907800000000 -0.0194870000000 1.0  -0.04
Li     1 -0.2505650000000  0.0194870000000  0.3907800000000 1.0  -0.04
O      2 -0.2728770000000  0.4836070000000  0.4451520000000 1.0   0.06
O      2 -0.2772320000000  0.2971610000000  0.2878690000000 1.0   0.05
O      2  0.0789700000000  0.5287210000000  0.2176370000000 1.0   0.03
O      2  0.0950780000000  0.2205850000000  0.5013130000000 1.0   0.05
O      2  0.2728770000000 -0.4451520000000 -0.4836070000000 1.0   0.06
O      2  0.2772320000000 -0.2878690000000 -0.2971610000000 1.0   0.05
O      2 -0.0789700000000 -0.2176370000000 -0.5287210000000 1.0   0.03
O      2 -0.0950780000000 -0.5013130000000 -0.2205850000000 1.0   0.05
O      2  0.3998950000000  0.3552820000000  0.0270590000000 1.0   0.03
O      2  0.0446430000000  0.1110410000000  0.1798400000000 1.0   0.03
O      2  0.2597620000000  0.1672590000000 -0.1202930000000 1.0   0.05
O      2  0.4863570000000  0.0024580000000  0.2061270000000 1.0   0.03
O      2 -0.3998950000000 -0.0270590000000 -0.3552820000000 1.0   0.03
O      2 -0.0446430000000 -0.1798400000000 -0.1110410000000 1.0   0.03
O      2 -0.2597620000000  0.1202930000000 -0.1672590000000 1.0   0.05
O      2 -0.4863570000000 -0.2061270000000 -0.0024580000000 1.0   0.03
P      3 -0.0893540000000  0.3733060000000  0.3679280000000 1.0   0.01
P      3  0.0893540000000 -0.3679280000000 -0.3733060000000 1.0   0.01
P      3  0.2992490000000  0.1616740000000  0.0699090000000 1.0   0.00
P      3 -0.2992490000000 -0.0699090000000 -0.1616740000000 1.0   0.00
Fe     4 -0.2314850000000  0.2445200000000 -0.0087110000000 1.0   3.86
Fe     4  0.2314850000000  0.0087110000000 -0.2445200000000 1.0   3.86
Fe     4  0.4065580000000  0.3913510000000  0.3761480000000 1.0   3.84
Fe     4 -0.4065580000000 -0.3761480000000 -0.3913510000000 1.0   3.84
END
