TITL 4LFP_actual-201126-130655-0aaef9 -0.0288 305.759098 -1.21478134E+004 16.0000 16.1776 28 (P21) n - 1
REM
REM Run started: Thu, 26 Nov 2020 16:59:57 +0000 in /lustre/scratch/uccabz1/launch_tmp/launcher_2020-11-26-13-06-52-245391
REM CASTEP 20.1 from code version af48c487+ pr-geom-scf-spinfix Tue Jun 2 15:39:59 2020 +0100
REM Functional Perdew Burke Ernzerhof Relativity Koelling-Harmon Dispersion off
REM Cut-off 300.0000 eV Grid scale 1.7500 Gmax 15.5288 1/A FBSC none
REM MP grid 3 2 2 Offset 0.000 0.000 0.000 No. kpts 3 Spacing 0.07
REM Total runtime: 15758.3 s
REM Overall efficiency: 73.8182 %
REM
REM 4LFP_actual.cell (cb690b6ff984803026f07b083c6867a4)
REM
REM compiler GCC version 4.9.2
REM options -cpp -iprefix /lustre/shared/ucl/apps/gcc/4.9.2/bin/../lib/gcc/x86_64-unknown-linux-gnu/4.9.2/ -mtune=corei7 -march=x86-64 -g -Og
REM COMMAND_LINE
REM seed 1563029497 1209571706 -960741595 -185823035 -109150080 10762623 736856749 28806146 403725006 -1504999456 1873587427 -639781706
REM
REM P 3|1.8|4|5|5|30:31:32(qc=5)
REM O 2|1.5|12|13|15|20:21(qc=5)
REM Li 1|1.3|8|9|10|10U:20(qc=5)
REM Fe 3|2.2|2.0|1.0|8|9|10|40:41:32(qc=5)
REM Fe d:4.0 
REM
CELL 1.54180    5.13944    7.40189    8.24722   90.00000   90.00000  102.94879
LATT -1
SFAC Li O  P  Fe 
Li     1 -0.1736340000000  0.4578210000000  0.4392930000000 1.0  -0.04
Li     1  0.1736340000000 -0.4578210000000 -0.0607070000000 1.0  -0.04
Li     1  0.3452170000000  0.0377330000000 -0.4016890000000 1.0  -0.04
Li     1 -0.3452170000000 -0.0377330000000  0.0983110000000 1.0  -0.04
O      2  0.6298270000000  0.5604950000000 -0.3619700000000 1.0   0.04
O      2  0.1995150000000  0.5668930000000 -0.5223400000000 1.0   0.03
O      2  0.4029020000000  0.2822000000000 -0.4988410000000 1.0   0.04
O      2  0.1611080000000  0.4014740000000 -0.2588050000000 1.0   0.03
O      2 -0.6298270000000 -0.5604950000000  0.1380300000000 1.0   0.04
O      2 -0.1995150000000 -0.5668930000000 -0.0223400000000 1.0   0.03
O      2 -0.4029020000000 -0.2822000000000  0.0011590000000 1.0   0.04
O      2 -0.1611080000000 -0.4014740000000  0.2411950000000 1.0   0.03
O      2  0.2899270000000 -0.0034790000000  0.1098690000000 1.0   0.03
O      2  0.1197770000000 -0.2070490000000 -0.1395340000000 1.0   0.04
O      2 -0.0816600000000  0.0617980000000 -0.0638050000000 1.0   0.05
O      2  0.3946840000000  0.1145970000000 -0.1782380000000 1.0   0.03
O      2 -0.2899270000000  0.0034790000000  0.6098690000000 1.0   0.03
O      2 -0.1197770000000  0.2070490000000  0.3604660000000 1.0   0.04
O      2  0.0816600000000 -0.0617980000000  0.4361950000000 1.0   0.05
O      2 -0.3946840000000 -0.1145970000000  0.3217620000000 1.0   0.03
P      3  0.3408200000000  0.4554570000000 -0.4095910000000 1.0   0.02
P      3 -0.3408200000000 -0.4554570000000  0.0904090000000 1.0   0.02
P      3  0.1837330000000 -0.0068780000000 -0.0691900000000 1.0   0.01
P      3 -0.1837330000000  0.0068780000000  0.4308100000000 1.0   0.01
Fe     4 -0.2210800000000  0.2552660000000 -0.2110350000000 1.0   3.88
Fe     4  0.2210800000000 -0.2552660000000  0.2889650000000 1.0   3.88
Fe     4 -0.2708140000000 -0.2119540000000 -0.2266630000000 1.0   3.88
Fe     4  0.2708140000000  0.2119540000000  0.2733370000000 1.0   3.88
END
