TITL 4LFP_actual-201126-100012-11284e -0.0027 306.404329 -1.21462884E+004 16.0000 16.1808 28 (P21) n - 1
REM
REM Run started: Thu, 26 Nov 2020 14:55:04 +0000 in /lustre/scratch/uccabz1/launch_tmp/launcher_2020-11-26-09-59-52-086176
REM CASTEP 20.1 from code version af48c487+ pr-geom-scf-spinfix Tue Jun 2 15:39:59 2020 +0100
REM Functional Perdew Burke Ernzerhof Relativity Koelling-Harmon Dispersion off
REM Cut-off 300.0000 eV Grid scale 1.7500 Gmax 15.5288 1/A FBSC none
REM MP grid 3 3 2 Offset 0.000 0.000 0.000 No. kpts 6 Spacing 0.07
REM Total runtime: 18321.4 s
REM Overall efficiency: 96.6 %
REM
REM 4LFP_actual.cell (cb690b6ff984803026f07b083c6867a4)
REM
REM compiler GCC version 4.9.2
REM options -cpp -iprefix /lustre/shared/ucl/apps/gcc/4.9.2/bin/../lib/gcc/x86_64-unknown-linux-gnu/4.9.2/ -mtune=corei7 -march=x86-64 -g -Og
REM COMMAND_LINE
REM seed 936157462 -1729451833 1372798395 1551759505 -1650242170 -1304758810 -45958511 -1473029585 -1557672601 531477044 -2053451622 689556825
REM
REM P 3|1.8|4|5|5|30:31:32(qc=5)
REM O 2|1.5|12|13|15|20:21(qc=5)
REM Li 1|1.3|8|9|10|10U:20(qc=5)
REM Fe 3|2.2|2.0|1.0|8|9|10|40:41:32(qc=5)
REM Fe d:4.0 
REM
CELL 1.54180    5.61122    6.01802    9.07386   89.65330   90.00000   90.00000
LATT -1
SFAC Li O  P  Fe 
Li     1  0.2505190000000 -0.0176770000000  0.1791610000000 1.0  -0.03
Li     1 -0.2494810000000  0.0176770000000 -0.1791610000000 1.0  -0.03
Li     1  0.2502330000000 -0.4824390000000  0.1982930000000 1.0  -0.04
Li     1 -0.2497670000000  0.4824390000000 -0.1982930000000 1.0  -0.04
O      2  0.1211390000000 -0.2285850000000  0.6152080000000 1.0   0.03
O      2  0.0575650000000  0.0405150000000  0.3948390000000 1.0   0.03
O      2  0.3248400000000 -0.2773100000000  0.3534960000000 1.0   0.06
O      2 -0.0761720000000 -0.3872710000000  0.3989540000000 1.0   0.06
O      2 -0.3788610000000  0.2285850000000 -0.6152080000000 1.0   0.03
O      2 -0.4424350000000 -0.0405150000000 -0.3948390000000 1.0   0.03
O      2 -0.1751600000000  0.2773100000000 -0.3534960000000 1.0   0.06
O      2 -0.5761720000000  0.3872710000000 -0.3989540000000 1.0   0.06
O      2  0.0089210000000 -0.2506610000000  0.0926910000000 1.0   0.01
O      2 -0.3843280000000 -0.0466010000000  0.1419170000000 1.0   0.04
O      2 -0.3462090000000 -0.2556540000000 -0.0961800000000 1.0   0.02
O      2 -0.3836240000000 -0.4620040000000  0.1448030000000 1.0   0.04
O      2  0.5089210000000  0.2506610000000 -0.0926910000000 1.0   0.01
O      2  0.1156720000000  0.0466010000000 -0.1419170000000 1.0   0.04
O      2  0.1537910000000  0.2556540000000  0.0961800000000 1.0   0.02
O      2  0.1163760000000  0.4620040000000 -0.1448030000000 1.0   0.04
P      3  0.1062420000000 -0.2002850000000  0.4482480000000 1.0   0.01
P      3 -0.3937580000000  0.2002850000000 -0.4482480000000 1.0   0.01
P      3 -0.2644610000000 -0.2545250000000  0.0723130000000 1.0   0.01
P      3  0.2355390000000  0.2545250000000 -0.0723130000000 1.0   0.01
Fe     4 -0.2275290000000  0.2473050000000  0.1686170000000 1.0   3.90
Fe     4  0.2724710000000 -0.2473050000000 -0.1686170000000 1.0   3.90
Fe     4  0.1080500000000  0.3193840000000 -0.4678160000000 1.0   3.85
Fe     4 -0.3919500000000 -0.3193840000000  0.4678160000000 1.0   3.85
END
