TITL 4LFP-201124-103926-662d4e 0.0191 151.686823 -6.06900085E+003 8.00000 8.14905 14 (P-1) n - 1
REM
REM Run started: Tue, 24 Nov 2020 11:16:48 +0000 in /lustre/scratch/uccabz1/launch_tmp/launcher_2020-11-24-10-39-16-473149
REM CASTEP 20.1 from code version af48c487+ pr-geom-scf-spinfix Tue Jun 2 15:39:59 2020 +0100
REM Functional Perdew Burke Ernzerhof Relativity Koelling-Harmon Dispersion off
REM Cut-off 300.0000 eV Grid scale 1.7500 Gmax 15.5288 1/A FBSC none
REM MP grid 5 3 2 Offset 0.000 0.000 0.000 No. kpts 15 Spacing 0.07
REM Total runtime: 2677.38 s
REM Overall efficiency: 87.1667 %
REM
REM 4LFP.cell (a815d5d25b9f25a0a111bfe3624e67be)
REM
REM compiler GCC version 4.9.2
REM options -cpp -iprefix /lustre/shared/ucl/apps/gcc/4.9.2/bin/../lib/gcc/x86_64-unknown-linux-gnu/4.9.2/ -mtune=corei7 -march=x86-64 -g -Og
REM COMMAND_LINE
REM seed 1613879053 509325242 -1389756083 1263459201 -846151345 -1672058546 -396217428 -1509126514 -1682396342 -1962836081 365752164 587396334
REM
REM P 3|1.8|4|5|5|30:31:32(qc=5)
REM O 2|1.5|12|13|15|20:21(qc=5)
REM Li 1|1.3|8|9|10|10U:20(qc=5)
REM Fe 3|2.2|2.0|1.0|8|9|10|40:41:32(qc=5)
REM Fe d:4.0 
REM
CELL 1.54180    3.48137    6.36653    7.81222  103.83693  101.17866  109.12977
LATT -1
SFAC Li O  P  Fe 
Li     1  0.0230650000000  0.3632740000000 -0.3638980000000 1.0  -0.05
Li     1 -0.0230650000000 -0.3632740000000  0.3638980000000 1.0  -0.05
O      2 -0.2666310000000  0.2588870000000  0.1689340000000 1.0   0.02
O      2 -0.3081680000000  0.4380890000000 -0.1149270000000 1.0   0.01
O      2 -0.0077410000000  0.1274100000000 -0.1194730000000 1.0   0.02
O      2  0.2666310000000 -0.2588870000000 -0.1689340000000 1.0   0.02
O      2  0.3081680000000 -0.4380890000000  0.1149270000000 1.0   0.01
O      2  0.0077410000000 -0.1274100000000  0.1194730000000 1.0   0.02
O      2 -0.5000000000000  0.0000000000000 -0.5000000000000 1.0   0.22
O      2  0.5000000000000  0.5000000000000 -0.5000000000000 1.0   0.16
P      3 -0.1034380000000  0.3032590000000  0.0104780000000 1.0   0.01
P      3  0.1034380000000 -0.3032590000000 -0.0104780000000 1.0   0.01
Fe     4  0.3109320000000  0.1699410000000  0.3519250000000 1.0   3.80
Fe     4 -0.3109320000000 -0.1699410000000 -0.3519250000000 1.0   3.80
END
