TITL 4LFP_actual-201126-231224-095d0c 0.1773 314.292627 -1.21486911E+004 16.0000 16.2275 28 (Pna21) n - 1
REM
REM Run started: Fri, 27 Nov 2020 01:37:55 +0000 in /lustre/scratch/uccabz1/launch_tmp/launcher_2020-11-26-23-12-04-783171
REM CASTEP 20.1 from code version af48c487+ pr-geom-scf-spinfix Tue Jun 2 15:39:59 2020 +0100
REM Functional Perdew Burke Ernzerhof Relativity Koelling-Harmon Dispersion off
REM Cut-off 300.0000 eV Grid scale 1.7500 Gmax 15.5288 1/A FBSC none
REM MP grid 4 2 2 Offset 0.000 0.000 0.000 No. kpts 2 Spacing 0.07
REM Total runtime: 9608 s
REM Overall efficiency: 78.9167 %
REM
REM 4LFP_actual.cell (cb690b6ff984803026f07b083c6867a4)
REM
REM compiler GCC version 4.9.2
REM options -cpp -iprefix /lustre/shared/ucl/apps/gcc/4.9.2/bin/../lib/gcc/x86_64-unknown-linux-gnu/4.9.2/ -mtune=corei7 -march=x86-64 -g -Og
REM COMMAND_LINE
REM seed 1231600663 1937099868 1943366118 23617354 476311423 576478986 1883484350 196126051 1327193805 -1737809796 921058916 1181850373
REM
REM P 3|1.8|4|5|5|30:31:32(qc=5)
REM O 2|1.5|12|13|15|20:21(qc=5)
REM Li 1|1.3|8|9|10|10U:20(qc=5)
REM Fe 3|2.2|2.0|1.0|8|9|10|40:41:32(qc=5)
REM Fe d:4.0 
REM
CELL 1.54180    4.42761    7.57082    9.37609   90.00000   90.00000   90.00000
LATT -1
SFAC Li O  P  Fe 
Li     1  0.2347350000000 -0.0115010000000  0.1473110000000 1.0  -0.03
Li     1 -0.2652650000000  0.0115010000000 -0.1473110000000 1.0  -0.03
Li     1  0.2347350000000 -0.5115010000000  0.3526890000000 1.0  -0.03
Li     1 -0.2652650000000  0.5115010000000 -0.3526890000000 1.0  -0.03
O      2 -0.4660690000000  0.3555870000000  0.2467130000000 1.0   0.03
O      2 -0.4746740000000  0.1540880000000  0.0238610000000 1.0   0.03
O      2 -0.0901310000000  0.4026230000000  0.0406890000000 1.0   0.05
O      2 -0.0469670000000  0.1447800000000  0.2119740000000 1.0   0.05
O      2  0.0339310000000 -0.3555870000000 -0.2467130000000 1.0   0.03
O      2  0.0253260000000 -0.1540880000000 -0.0238610000000 1.0   0.03
O      2  0.4098690000000 -0.4026230000000 -0.0406890000000 1.0   0.05
O      2  0.4530330000000 -0.1447800000000 -0.2119740000000 1.0   0.05
O      2 -0.4660690000000 -0.1444130000000  0.2532870000000 1.0   0.03
O      2 -0.4746740000000 -0.3459120000000  0.4761390000000 1.0   0.03
O      2 -0.0901310000000 -0.0973770000000  0.4593110000000 1.0   0.05
O      2 -0.0469670000000 -0.3552200000000  0.2880260000000 1.0   0.05
O      2  0.0339310000000  0.1444130000000 -0.2532870000000 1.0   0.03
O      2  0.0253260000000  0.3459120000000 -0.4761390000000 1.0   0.03
O      2  0.4098690000000  0.0973770000000 -0.4593110000000 1.0   0.05
O      2  0.4530330000000  0.3552200000000 -0.2880260000000 1.0   0.05
P      3 -0.2737710000000  0.2648040000000  0.1301520000000 1.0   0.01
P      3  0.2262290000000 -0.2648040000000 -0.1301520000000 1.0   0.01
P      3 -0.2737710000000 -0.2351960000000  0.3698480000000 1.0   0.01
P      3  0.2262290000000  0.2351960000000 -0.3698480000000 1.0   0.01
Fe     4 -0.2467770000000 -0.3311240000000  0.0888300000000 1.0   3.87
Fe     4  0.2532230000000  0.3311240000000 -0.0888300000000 1.0   3.87
Fe     4 -0.2467770000000  0.1688760000000  0.4111700000000 1.0   3.87
Fe     4  0.2532230000000 -0.1688760000000 -0.4111700000000 1.0   3.87
END
