TITL 4LFP-201124-093127-5b1190 0.0227 171.851992 -6.07363584E+003 8.00000 8.11349 14 (Cc) n - 1
REM
REM Run started: Tue, 24 Nov 2020 10:41:35 +0000 in /scratch/scratch/uccabz1/launch_tmp/launcher_2020-11-24-10-29-29-649738
REM CASTEP 19.11| from code version Version unavailable
REM Functional Perdew Burke Ernzerhof Relativity Koelling-Harmon Dispersion off
REM Cut-off 300.0000 eV Grid scale 1.7500 Gmax 15.5288 1/A FBSC none
REM MP grid 4 4 2 Offset 0.000 0.000 0.000 No. kpts 10 Spacing 0.07
REM Total runtime: 4283.9 s
REM Overall efficiency: 75.8182 %
REM
REM
REM
REM compiler GCC version 4.9.2
REM options -cpp -iprefix /scratch/UCL/applications/gcc/4.9.2/bin/../lib/gcc/x86_64-unknown-linux-gnu/4.9.2/ -mtune=corei7 -march=x86-64 -g -O2
REM COMMAND_LINE
REM seed 1722163050 -440008353 -1001981616 956858078 570212769 281015689 451317869 -739405689 1203621745 2039180784 655791626 107158802
REM
REM P 3|1.8|4|5|5|30:31:32(qc=5)
REM O 2|1.5|12|13|15|20:21(qc=5)
REM Li 1|1.3|8|9|10|10U:20(qc=5)
REM Fe 3|2.2|2.0|1.0|8|9|10|40:41:32(qc=5)
REM Fe d:4.0 
REM
CELL 1.54180    5.01438    5.01438    8.16202   72.97852   72.97852   63.07765
LATT -1
SFAC Li O  P  Fe 
Li     1 -0.2220120000000 -0.4643610000000  0.4654660000000 1.0  -0.05
Li     1  0.0356390000000  0.2779880000000 -0.0345340000000 1.0  -0.05
O      2  0.1125480000000  0.1541860000000  0.4007380000000 1.0   0.04
O      2  0.0181030000000 -0.0372660000000  0.1713130000000 1.0   0.03
O      2 -0.2742140000000 -0.0852790000000  0.4795120000000 1.0   0.03
O      2 -0.3709690000000  0.4430990000000  0.2962990000000 1.0   0.04
O      2 -0.3458140000000  0.6125480000000 -0.0992620000000 1.0   0.04
O      2 -0.5372660000000  0.5181030000000 -0.3286870000000 1.0   0.03
O      2 -0.5852790000000  0.2257860000000 -0.0204880000000 1.0   0.03
O      2 -0.0569010000000  0.1290310000000 -0.2037010000000 1.0   0.04
P      3 -0.1251690000000  0.1121510000000  0.3347430000000 1.0   0.02
P      3 -0.3878490000000  0.3748310000000 -0.1652570000000 1.0   0.02
Fe     4 -0.4957080000000 -0.1940250000000  0.1181990000000 1.0   3.88
Fe     4  0.3059750000000  0.0042920000000 -0.3818010000000 1.0   3.88
END
