TITL 4LFP_actual-201126-211353-eb894c -0.0066 283.101601 -1.21481870E+004 16.0000 16.2144 28 (P1) n - 1
REM
REM Run started: Fri, 27 Nov 2020 06:37:43 +0000 in /scratch/scratch/mmm0366/launch_tmp/launcher_2020-11-26-21-13-42-393366
REM CASTEP 19.11| from code version Version unavailable
REM Functional Perdew Burke Ernzerhof Relativity Koelling-Harmon Dispersion off
REM Cut-off 300.0000 eV Grid scale 1.7500 Gmax 15.5288 1/A FBSC none
REM MP grid 3 3 2 Offset 0.000 0.000 0.000 No. kpts 6 Spacing 0.07
REM Total runtime: 34579.3 s
REM Overall efficiency: 97.4167 %
REM
REM 4LFP_actual.cell (cb690b6ff984803026f07b083c6867a4)
REM
REM compiler GCC version 4.9.2
REM options -cpp -iprefix /scratch/UCL/applications/gcc/4.9.2/bin/../lib/gcc/x86_64-unknown-linux-gnu/4.9.2/ -mtune=corei7 -march=x86-64 -g -O2
REM COMMAND_LINE
REM seed -1295675289 -75556978 1911193020 1647574411 1991391096 1681977207 139037699 -1432284600 1073457263 -2110772271 -978950813 430667091
REM
REM P 3|1.8|4|5|5|30:31:32(qc=5)
REM O 2|1.5|12|13|15|20:21(qc=5)
REM Li 1|1.3|8|9|10|10U:20(qc=5)
REM Fe 3|2.2|2.0|1.0|8|9|10|40:41:32(qc=5)
REM Fe d:4.0 
REM
CELL 1.54180    6.22434    4.95720    9.18097   90.00000   92.04363   90.00000
LATT -1
SFAC Li O  P  Fe 
Li     1 -0.1109170000000  0.2406260000000  0.2807160000000 1.0  -0.04
Li     1 -0.1109170000000 -0.2406260000000 -0.2192840000000 1.0  -0.04
Li     1  0.3881020000000  0.2405030000000  0.2804790000000 1.0  -0.04
Li     1  0.3881020000000 -0.2405030000000 -0.2195210000000 1.0  -0.04
O      2 -0.3556730000000 -0.5307400000000  0.1184750000000 1.0   0.03
O      2 -0.3665830000000 -0.1523230000000 -0.0764500000000 1.0   0.03
O      2 -0.5535020000000 -0.0918480000000  0.1654350000000 1.0   0.04
O      2 -0.1550510000000 -0.0864810000000  0.1623080000000 1.0   0.04
O      2 -0.3556730000000  0.5307400000000 -0.3815250000000 1.0   0.03
O      2 -0.3665830000000  0.1523230000000 -0.5764500000000 1.0   0.03
O      2 -0.5535020000000  0.0918480000000 -0.3345650000000 1.0   0.04
O      2 -0.1550510000000  0.0864810000000 -0.3376920000000 1.0   0.04
O      2  0.3317960000000 -0.4096410000000  0.3850710000000 1.0   0.04
O      2  0.1461710000000 -0.3401670000000  0.6272760000000 1.0   0.03
O      2  0.1340610000000  0.0318390000000  0.4293440000000 1.0   0.03
O      2 -0.0649180000000 -0.4160490000000  0.3888300000000 1.0   0.04
O      2  0.3317960000000  0.4096410000000 -0.1149290000000 1.0   0.04
O      2  0.1461710000000  0.3401670000000  0.1272760000000 1.0   0.03
O      2  0.1340610000000 -0.0318390000000 -0.0706560000000 1.0   0.03
O      2 -0.0649180000000  0.4160490000000 -0.1111700000000 1.0   0.04
P      3 -0.3579610000000 -0.2219640000000  0.0905920000000 1.0  -0.00
P      3 -0.3579610000000  0.2219640000000 -0.4094080000000 1.0  -0.00
P      3  0.1370950000000 -0.2772380000000  0.4598050000000 1.0   0.00
P      3  0.1370950000000  0.2772380000000 -0.0401950000000 1.0   0.00
Fe     4  0.1425480000000  0.2379160000000 -0.3641360000000 1.0   3.89
Fe     4  0.1425480000000 -0.2379160000000  0.1358640000000 1.0   3.89
Fe     4 -0.3627570000000  0.2683350000000 -0.0881260000000 1.0   3.90
Fe     4 -0.3627570000000 -0.2683350000000  0.4118740000000 1.0   3.90
END
