TITL 4LFP_actual-201126-201239-ce205a 0.0456 310.444370 -1.21455350E+004 16.0000 16.1580 28 (Pna21) n - 1
REM
REM Run started: Thu, 26 Nov 2020 21:07:03 +0000 in /lustre/scratch/uccabz1/launch_tmp/launcher_2020-11-26-20-12-37-691859
REM CASTEP 20.1 from code version af48c487+ pr-geom-scf-spinfix Tue Jun 2 15:39:59 2020 +0100
REM Functional Perdew Burke Ernzerhof Relativity Koelling-Harmon Dispersion off
REM Cut-off 300.0000 eV Grid scale 1.7500 Gmax 15.5288 1/A FBSC none
REM MP grid 4 2 2 Offset 0.000 0.000 0.000 No. kpts 2 Spacing 0.07
REM Total runtime: 3723.9 s
REM Overall efficiency: 77.8571 %
REM
REM 4LFP_actual.cell (cb690b6ff984803026f07b083c6867a4)
REM
REM compiler GCC version 4.9.2
REM options -cpp -iprefix /lustre/shared/ucl/apps/gcc/4.9.2/bin/../lib/gcc/x86_64-unknown-linux-gnu/4.9.2/ -mtune=corei7 -march=x86-64 -g -Og
REM COMMAND_LINE
REM seed -1109108020 -1241536692 -596958105 -1657433852 -954768037 1150552445 -926316741 1914947113 -1641970781 28697969 -1507576992 1134342706
REM
REM P 3|1.8|4|5|5|30:31:32(qc=5)
REM O 2|1.5|12|13|15|20:21(qc=5)
REM Li 1|1.3|8|9|10|10U:20(qc=5)
REM Fe 3|2.2|2.0|1.0|8|9|10|40:41:32(qc=5)
REM Fe d:4.0 
REM
CELL 1.54180    4.26786    8.45609    8.60209   90.00000   90.00000   90.00000
LATT -1
SFAC Li O  P  Fe 
Li     1  0.2673330000000  0.4558610000000  0.1955480000000 1.0  -0.04
Li     1 -0.2673330000000 -0.0441390000000 -0.1955480000000 1.0  -0.04
Li     1  0.2326670000000  0.4558610000000 -0.3044520000000 1.0  -0.04
Li     1 -0.2326670000000 -0.0441390000000  0.3044520000000 1.0  -0.04
O      2  0.0477920000000  0.0040830000000 -0.3642160000000 1.0   0.02
O      2 -0.0217100000000  0.2819380000000 -0.2635080000000 1.0   0.05
O      2  0.4492260000000  0.1164260000000 -0.1761260000000 1.0   0.03
O      2  0.4035750000000  0.2479530000000 -0.4421080000000 1.0   0.04
O      2 -0.0477920000000 -0.4959170000000  0.3642160000000 1.0   0.02
O      2  0.0217100000000 -0.2180620000000  0.2635080000000 1.0   0.05
O      2 -0.4492260000000 -0.3835740000000  0.1761260000000 1.0   0.03
O      2 -0.4035750000000 -0.2520470000000  0.4421080000000 1.0   0.04
O      2  0.4522080000000  0.0040830000000  0.1357840000000 1.0   0.02
O      2  0.5217100000000  0.2819380000000  0.2364920000000 1.0   0.05
O      2  0.0507740000000  0.1164260000000  0.3238740000000 1.0   0.03
O      2  0.0964250000000  0.2479530000000  0.0578920000000 1.0   0.04
O      2 -0.4522080000000 -0.4959170000000 -0.1357840000000 1.0   0.02
O      2 -0.5217100000000 -0.2180620000000 -0.2364920000000 1.0   0.05
O      2 -0.0507740000000 -0.3835740000000 -0.3238740000000 1.0   0.03
O      2 -0.0964250000000 -0.2520470000000 -0.0578920000000 1.0   0.04
P      3  0.2252180000000  0.1560320000000 -0.3117680000000 1.0   0.01
P      3 -0.2252180000000 -0.3439680000000  0.3117680000000 1.0   0.01
P      3  0.2747820000000  0.1560320000000  0.1882320000000 1.0   0.01
P      3 -0.2747820000000 -0.3439680000000 -0.1882320000000 1.0   0.01
Fe     4  0.2038340000000 -0.2160600000000 -0.4420160000000 1.0   3.89
Fe     4 -0.2038340000000  0.2839400000000  0.4420160000000 1.0   3.89
Fe     4  0.2961660000000 -0.2160600000000  0.0579840000000 1.0   3.89
Fe     4 -0.2961660000000  0.2839400000000 -0.0579840000000 1.0   3.89
END
