TITL 4LFP_actual-201126-131209-535c58 0.0247 325.773875 -1.21435967E+004 16.0000 16.3481 28 (Cm) n - 1
REM
REM Run started: Thu, 26 Nov 2020 15:54:05 +0000 in /scratch/scratch/uccabz1/launch_tmp/launcher_2020-11-26-13-12-03-620917
REM CASTEP 19.11| from code version Version unavailable
REM Functional Perdew Burke Ernzerhof Relativity Koelling-Harmon Dispersion off
REM Cut-off 300.0000 eV Grid scale 1.7500 Gmax 15.5288 1/A FBSC none
REM MP grid 3 3 2 Offset 0.000 0.000 0.000 No. kpts 6 Spacing 0.07
REM Total runtime: 11117.1 s
REM Overall efficiency: 93.1667 %
REM
REM 4LFP_actual.cell (cb690b6ff984803026f07b083c6867a4)
REM
REM compiler GCC version 4.9.2
REM options -cpp -iprefix /scratch/UCL/applications/gcc/4.9.2/bin/../lib/gcc/x86_64-unknown-linux-gnu/4.9.2/ -mtune=corei7 -march=x86-64 -g -O2
REM COMMAND_LINE
REM seed -234979833 952872862 961733446 -610096743 559823154 2026835326 2097550605 -137037430 -896989449 249202064 -1635591175 1754435994
REM
REM P 3|1.8|4|5|5|30:31:32(qc=5)
REM O 2|1.5|12|13|15|20:21(qc=5)
REM Li 1|1.3|8|9|10|10U:20(qc=5)
REM Fe 3|2.2|2.0|1.0|8|9|10|40:41:32(qc=5)
REM Fe d:4.0 
REM
CELL 1.54180    6.44702    6.44702    8.15247   90.92200   90.92200  105.89753
LATT -1
SFAC Li O  P  Fe 
Li     1 -0.1434530000000  0.4219830000000 -0.2124600000000 1.0  -0.02
Li     1  0.4219830000000 -0.1434530000000 -0.2124600000000 1.0  -0.02
Li     1 -0.1748510000000  0.4230330000000  0.2887370000000 1.0  -0.03
Li     1  0.4230330000000 -0.1748510000000  0.2887370000000 1.0  -0.03
O      2 -0.0951010000000 -0.4387160000000 -0.4547610000000 1.0   0.05
O      2  0.1756700000000 -0.0989050000000 -0.4364780000000 1.0   0.07
O      2  0.2594650000000 -0.4388920000000 -0.3000640000000 1.0   0.03
O      2  0.2570990000000 -0.4377840000000 -0.5999230000000 1.0   0.02
O      2 -0.4387160000000 -0.0951010000000 -0.4547610000000 1.0   0.05
O      2 -0.0989050000000  0.1756700000000 -0.4364780000000 1.0   0.07
O      2 -0.4388920000000  0.2594650000000 -0.3000640000000 1.0   0.03
O      2 -0.4377840000000  0.2570990000000 -0.5999230000000 1.0   0.02
O      2  0.3488770000000 -0.3086120000000  0.0580800000000 1.0   0.05
O      2  0.0779320000000 -0.6481670000000  0.0383710000000 1.0   0.07
O      2 -0.0034190000000 -0.3050530000000  0.1975160000000 1.0   0.03
O      2 -0.0041230000000 -0.3080640000000 -0.1006000000000 1.0   0.03
O      2 -0.3086120000000  0.3488770000000  0.0580800000000 1.0   0.05
O      2 -0.6481670000000  0.0779320000000  0.0383710000000 1.0   0.07
O      2 -0.3050530000000 -0.0034190000000  0.1975160000000 1.0   0.03
O      2 -0.3080640000000 -0.0041230000000 -0.1006000000000 1.0   0.03
P      3  0.1596450000000 -0.3489010000000 -0.4496710000000 1.0   0.01
P      3 -0.3489010000000  0.1596450000000 -0.4496710000000 1.0   0.01
P      3  0.0945430000000 -0.3973570000000  0.0497880000000 1.0   0.00
P      3 -0.3973570000000  0.0945430000000  0.0497880000000 1.0   0.00
Fe     4  0.4180290000000  0.4180290000000  0.0359100000000 1.0   3.80
Fe     4 -0.1646980000000 -0.1646980000000 -0.4363690000000 1.0   3.80
Fe     4  0.2848730000000  0.2848730000000 -0.4556190000000 1.0   3.90
Fe     4 -0.0265840000000 -0.0265840000000  0.0385080000000 1.0   3.88
END
