TITL 4LFP-201124-105915-023789 0.0259 154.966148 -6.06466958E+003 7.96596 8.26428 14 (Imm2) n - 1
REM
REM Run started: Tue, 24 Nov 2020 12:15:31 +0000 in /scratch/scratch/uccabz1/launch_tmp/launcher_2020-11-24-10-59-09-829573
REM CASTEP 19.11| from code version Version unavailable
REM Functional Perdew Burke Ernzerhof Relativity Koelling-Harmon Dispersion off
REM Cut-off 300.0000 eV Grid scale 1.7500 Gmax 15.5288 1/A FBSC none
REM MP grid 4 3 3 Offset 0.000 0.000 0.000 No. kpts 12 Spacing 0.07
REM Total runtime: 5571.34 s
REM Overall efficiency: 90.3333 %
REM
REM 4LFP.cell (a815d5d25b9f25a0a111bfe3624e67be)
REM
REM compiler GCC version 4.9.2
REM options -cpp -iprefix /scratch/UCL/applications/gcc/4.9.2/bin/../lib/gcc/x86_64-unknown-linux-gnu/4.9.2/ -mtune=corei7 -march=x86-64 -g -O2
REM COMMAND_LINE
REM seed 40766251 -809227685 -1884997660 -1293083690 -2105187030 1484153725 248666256 -655338588 -897373405 1372337428 78725884 1439836873
REM
REM P 3|1.8|4|5|5|30:31:32(qc=5)
REM O 2|1.5|12|13|15|20:21(qc=5)
REM Li 1|1.3|8|9|10|10U:20(qc=5)
REM Fe 3|2.2|2.0|1.0|8|9|10|40:41:32(qc=5)
REM Fe d:4.0 
REM
CELL 1.54180    5.10213    5.37870    6.75483  113.46178  112.18918   90.00000
LATT -1
SFAC Li O  P  Fe 
Li     1  0.3092840000000  0.3092840000000  0.6185690000000 1.0  -0.04
Li     1 -0.1382160000000 -0.1382160000000 -0.2764310000000 1.0  -0.05
O      2  0.0351240000000  0.0916240000000  0.6195220000000 1.0   0.01
O      2 -0.2018590000000 -0.2221450000000  0.1388640000000 1.0   0.08
O      2  0.5843980000000  0.5278980000000  0.6195220000000 1.0   0.01
O      2  0.3407230000000  0.3610090000000  0.1388640000000 1.0   0.08
O      2  0.5843980000000  0.0916240000000  0.6195220000000 1.0   0.01
O      2  0.3407230000000 -0.2221450000000  0.1388640000000 1.0   0.08
O      2  0.0351240000000  0.5278980000000  0.6195220000000 1.0   0.01
O      2 -0.2018590000000  0.3610090000000  0.1388640000000 1.0   0.08
P      3 -0.4325760000000 -0.4325760000000 -0.8651530000000 1.0   0.02
P      3 -0.1961690000000  0.3038310000000  0.6076620000000 1.0  -0.01
Fe     4 -0.4340200000000  0.0659800000000  0.1319600000000 1.0   3.75
Fe     4  0.2007120000000 -0.2992880000000 -0.5985770000000 1.0   3.94
END
