TITL 4LFP-201124-103143-b31e6e 0.0165 139.920444 -6.07366603E+003 8.00000 8.18241 14 (Cc) n - 1
REM
REM Run started: Tue, 24 Nov 2020 12:13:40 +0000 in /lustre/scratch/uccabz1/launch_tmp/launcher_2020-11-24-10-31-37-282635
REM CASTEP 20.1 from code version af48c487+ pr-geom-scf-spinfix Tue Jun 2 15:39:59 2020 +0100
REM Functional Perdew Burke Ernzerhof Relativity Koelling-Harmon Dispersion off
REM Cut-off 300.0000 eV Grid scale 1.7500 Gmax 15.5288 1/A FBSC none
REM MP grid 4 4 3 Offset 0.000 0.000 0.000 No. kpts 24 Spacing 0.07
REM Total runtime: 6592.13 s
REM Overall efficiency: 95.125 %
REM
REM 4LFP.cell (a815d5d25b9f25a0a111bfe3624e67be)
REM
REM compiler GCC version 4.9.2
REM options -cpp -iprefix /lustre/shared/ucl/apps/gcc/4.9.2/bin/../lib/gcc/x86_64-unknown-linux-gnu/4.9.2/ -mtune=corei7 -march=x86-64 -g -Og
REM COMMAND_LINE
REM seed 1347802253 703691167 215758412 780061488 -1432996007 -137457122 -2044138840 -2021766070 499305315 555761654 -2076895080 -387735202
REM
REM P 3|1.8|4|5|5|30:31:32(qc=5)
REM O 2|1.5|12|13|15|20:21(qc=5)
REM Li 1|1.3|8|9|10|10U:20(qc=5)
REM Fe 3|2.2|2.0|1.0|8|9|10|40:41:32(qc=5)
REM Fe d:4.0 
REM
CELL 1.54180    5.05885    5.45223    6.15644   63.71687   79.94623   66.78140
LATT -1
SFAC Li O  P  Fe 
Li     1 -0.5167780000000  0.2935070000000  0.1990010000000 1.0  -0.05
Li     1 -0.0167780000000  0.4925080000000 -0.1990010000000 1.0  -0.05
O      2 -0.0740450000000  0.2850320000000  0.1415660000000 1.0   0.03
O      2  0.1087750000000 -0.2069430000000  0.1177210000000 1.0   0.05
O      2  0.4116180000000 -0.0719580000000  0.3326260000000 1.0   0.04
O      2 -0.0310680000000 -0.1779700000000  0.5228950000000 1.0   0.03
O      2 -0.5740450000000  0.4265980000000 -0.1415660000000 1.0   0.03
O      2 -0.3912250000000 -0.0892220000000 -0.1177210000000 1.0   0.05
O      2 -0.0883820000000  0.2606680000000 -0.3326260000000 1.0   0.04
O      2 -0.5310680000000  0.3449250000000 -0.5228950000000 1.0   0.03
P      3  0.1072420000000 -0.0499600000000  0.2773750000000 1.0   0.01
P      3 -0.3927580000000  0.2274150000000 -0.2773750000000 1.0   0.01
Fe     4  0.2698350000000 -0.1247020000000 -0.2663540000000 1.0   3.88
Fe     4  0.7698350000000 -0.3910560000000  0.2663540000000 1.0   3.88
END
