TITL 4LFP_actual-201126-105025-e341bd 0.0142 308.713179 -1.21487085E+004 16.0000 16.2295 28 (P21/c) n - 1
REM
REM Run started: Thu, 26 Nov 2020 11:27:31 +0000 in /lustre/scratch/uccabz1/launch_tmp/launcher_2020-11-26-10-50-02-210119
REM CASTEP 20.1 from code version af48c487+ pr-geom-scf-spinfix Tue Jun 2 15:39:59 2020 +0100
REM Functional Perdew Burke Ernzerhof Relativity Koelling-Harmon Dispersion off
REM Cut-off 300.0000 eV Grid scale 1.7500 Gmax 15.5288 1/A FBSC none
REM MP grid 3 2 2 Offset 0.000 0.000 0.000 No. kpts 3 Spacing 0.07
REM Total runtime: 2564.17 s
REM Overall efficiency: 69.4286 %
REM
REM 4LFP_actual.cell (cb690b6ff984803026f07b083c6867a4)
REM
REM compiler GCC version 4.9.2
REM options -cpp -iprefix /lustre/shared/ucl/apps/gcc/4.9.2/bin/../lib/gcc/x86_64-unknown-linux-gnu/4.9.2/ -mtune=corei7 -march=x86-64 -g -Og
REM COMMAND_LINE
REM seed 911733063 -2133584950 -1428323423 -784342428 -581452160 -1289591878 1043318174 -1381621684 -1530232139 1033524060 1391460883 1747527100
REM
REM P 3|1.8|4|5|5|30:31:32(qc=5)
REM O 2|1.5|12|13|15|20:21(qc=5)
REM Li 1|1.3|8|9|10|10U:20(qc=5)
REM Fe 3|2.2|2.0|1.0|8|9|10|40:41:32(qc=5)
REM Fe d:4.0 
REM
CELL 1.54180    5.19946    8.02049    7.51211   90.00000   99.78650   90.00000
LATT -1
SFAC Li O  P  Fe 
Li     1 -0.0758760000000 -0.1135680000000 -0.1640320000000 1.0  -0.04
Li     1 -0.4241240000000  0.3864320000000 -0.3359680000000 1.0  -0.04
Li     1  0.0758760000000  0.1135680000000  0.1640320000000 1.0  -0.04
Li     1  0.4241240000000 -0.3864320000000  0.3359680000000 1.0  -0.04
O      2 -0.1684950000000 -0.1072330000000  0.0882300000000 1.0   0.05
O      2  0.0339300000000 -0.3644770000000  0.2554470000000 1.0   0.06
O      2  0.1347450000000 -0.0679270000000  0.3712250000000 1.0   0.03
O      2 -0.3116770000000 -0.2107690000000  0.3816460000000 1.0   0.04
O      2 -0.3315050000000  0.3927670000000  0.4117700000000 1.0   0.05
O      2 -0.5339300000000  0.1355230000000  0.2445530000000 1.0   0.06
O      2 -0.6347450000000  0.4320730000000  0.1287750000000 1.0   0.03
O      2 -0.1883230000000  0.2892310000000  0.1183540000000 1.0   0.04
O      2  0.1684950000000  0.1072330000000 -0.0882300000000 1.0   0.05
O      2 -0.0339300000000  0.3644770000000 -0.2554470000000 1.0   0.06
O      2 -0.1347450000000  0.0679270000000 -0.3712250000000 1.0   0.03
O      2  0.3116770000000  0.2107690000000 -0.3816460000000 1.0   0.04
O      2  0.3315050000000 -0.3927670000000 -0.4117700000000 1.0   0.05
O      2  0.5339300000000 -0.1355230000000 -0.2445530000000 1.0   0.06
O      2  0.6347450000000 -0.4320730000000 -0.1287750000000 1.0   0.03
O      2  0.1883230000000 -0.2892310000000 -0.1183540000000 1.0   0.04
P      3 -0.0782250000000 -0.1861110000000  0.2801730000000 1.0   0.01
P      3 -0.4217750000000  0.3138890000000  0.2198270000000 1.0   0.01
P      3  0.0782250000000  0.1861110000000 -0.2801730000000 1.0   0.01
P      3  0.4217750000000 -0.3138890000000 -0.2198270000000 1.0   0.01
Fe     4 -0.5000000000000  0.0000000000000  0.0000000000000 1.0   3.83
Fe     4 -0.0000000000000 -0.5000000000000  0.5000000000000 1.0   3.83
Fe     4 -0.5000000000000  0.0000000000000 -0.5000000000000 1.0   3.85
Fe     4 -0.0000000000000 -0.5000000000000  0.0000000000000 1.0   3.85
END
