TITL 4LFP_actual-201127-003333-40985e -0.0332 292.446218 -1.21473523E+004 16.0000 16.2501 28 (P21) n - 1
REM
REM Run started: Fri, 27 Nov 2020 10:16:10 +0000 in /lustre/scratch/uccabz1/launch_tmp/launcher_2020-11-27-00-33-12-438181
REM CASTEP 20.1 from code version af48c487+ pr-geom-scf-spinfix Tue Jun 2 15:39:59 2020 +0100
REM Functional Perdew Burke Ernzerhof Relativity Koelling-Harmon Dispersion off
REM Cut-off 300.0000 eV Grid scale 1.7500 Gmax 15.5288 1/A FBSC none
REM MP grid 3 3 2 Offset 0.000 0.000 0.000 No. kpts 6 Spacing 0.07
REM Total runtime: 34153 s
REM Overall efficiency: 95.9286 %
REM
REM 4LFP_actual.cell (cb690b6ff984803026f07b083c6867a4)
REM
REM compiler GCC version 4.9.2
REM options -cpp -iprefix /lustre/shared/ucl/apps/gcc/4.9.2/bin/../lib/gcc/x86_64-unknown-linux-gnu/4.9.2/ -mtune=corei7 -march=x86-64 -g -Og
REM COMMAND_LINE
REM seed 1980121274 -2067353457 -212850398 -2010930216 -2089145029 1664073559 1879168566 1597992582 1886644965 960155859 1067089360 361010915
REM
REM P 3|1.8|4|5|5|30:31:32(qc=5)
REM O 2|1.5|12|13|15|20:21(qc=5)
REM Li 1|1.3|8|9|10|10U:20(qc=5)
REM Fe 3|2.2|2.0|1.0|8|9|10|40:41:32(qc=5)
REM Fe d:4.0 
REM
CELL 1.54180    6.41231    6.11499    8.26134  115.47313   90.00000   90.00000
LATT -1
SFAC Li O  P  Fe 
Li     1 -0.1684290000000  0.1383540000000 -0.2618950000000 1.0  -0.04
Li     1  0.3315710000000 -0.1383540000000  0.2618950000000 1.0  -0.04
Li     1 -0.1104190000000  0.6130880000000 -0.2972610000000 1.0  -0.04
Li     1 -0.6104190000000 -0.6130880000000  0.2972610000000 1.0  -0.04
O      2 -0.4637070000000  0.1021880000000  0.2694740000000 1.0   0.02
O      2 -0.2535100000000  0.0450700000000  0.5044760000000 1.0   0.04
O      2 -0.0567850000000  0.1451000000000  0.2813760000000 1.0   0.03
O      2 -0.2866740000000  0.4667340000000  0.5023950000000 1.0   0.03
O      2  0.0362930000000 -0.1021880000000 -0.2694740000000 1.0   0.02
O      2  0.2464900000000 -0.0450700000000 -0.5044760000000 1.0   0.04
O      2  0.4432150000000 -0.1451000000000 -0.2813760000000 1.0   0.03
O      2  0.2133260000000 -0.4667340000000 -0.5023950000000 1.0   0.03
O      2  0.0381040000000 -0.5859080000000 -0.1936480000000 1.0   0.04
O      2 -0.1762700000000 -0.2267520000000 -0.0320940000000 1.0   0.04
O      2 -0.0110910000000 -0.4435610000000  0.1499320000000 1.0   0.04
O      2  0.2060730000000 -0.1927560000000  0.0383470000000 1.0   0.04
O      2  0.5381040000000  0.5859080000000  0.1936480000000 1.0   0.04
O      2  0.3237300000000  0.2267520000000  0.0320940000000 1.0   0.04
O      2  0.4889090000000  0.4435610000000 -0.1499320000000 1.0   0.04
O      2  0.7060730000000  0.1927560000000 -0.0383470000000 1.0   0.04
P      3 -0.2608080000000  0.1851810000000  0.3843420000000 1.0   0.01
P      3  0.2391920000000 -0.1851810000000 -0.3843420000000 1.0   0.01
P      3  0.0142690000000 -0.3650220000000 -0.0043940000000 1.0   0.02
P      3  0.5142690000000  0.3650220000000  0.0043940000000 1.0   0.02
Fe     4 -0.4851280000000 -0.1379250000000 -0.0394280000000 1.0   3.87
Fe     4  0.0148720000000  0.1379250000000  0.0394280000000 1.0   3.87
Fe     4 -0.2075100000000 -0.3153570000000  0.3756870000000 1.0   3.91
Fe     4  0.2924900000000  0.3153570000000 -0.3756870000000 1.0   3.91
END
