TITL 4LFP-201124-073412-fa9e8c -0.0178 159.145294 -6.07140985E+003 8.00000 8.10145 14 (Pm) n - 1
REM
REM Run started: Tue, 24 Nov 2020 08:25:27 +0000 in /scratch/scratch/uccabz1/launch_tmp/launcher_2020-11-24-07-34-11-031171
REM CASTEP 19.11| from code version Version unavailable
REM Functional Perdew Burke Ernzerhof Relativity Koelling-Harmon Dispersion off
REM Cut-off 300.0000 eV Grid scale 1.7500 Gmax 15.5288 1/A FBSC none
REM MP grid 4 4 2 Offset 0.000 0.000 0.000 No. kpts 8 Spacing 0.07
REM Total runtime: 3922.57 s
REM Overall efficiency: 93.5 %
REM
REM 4LFP.cell (a815d5d25b9f25a0a111bfe3624e67be)
REM
REM compiler GCC version 4.9.2
REM options -cpp -iprefix /scratch/UCL/applications/gcc/4.9.2/bin/../lib/gcc/x86_64-unknown-linux-gnu/4.9.2/ -mtune=corei7 -march=x86-64 -g -O2
REM COMMAND_LINE
REM seed -377052098 -28549471 786051449 834194472 -601985891 1908697455 -2080708077 893856700 31062097 862311679 -769964802 943927731
REM
REM P 3|1.8|4|5|5|30:31:32(qc=5)
REM O 2|1.5|12|13|15|20:21(qc=5)
REM Li 1|1.3|8|9|10|10U:20(qc=5)
REM Fe 3|2.2|2.0|1.0|8|9|10|40:41:32(qc=5)
REM Fe d:4.0 
REM
CELL 1.54180    4.09689    5.07974    8.36590   90.00000   90.00000  113.92419
LATT -1
SFAC Li O  P  Fe 
Li     1 -0.1659920000000 -0.1038330000000 -0.3216210000000 1.0  -0.03
Li     1 -0.1659920000000 -0.1038330000000  0.3216210000000 1.0  -0.03
O      2  0.1792550000000 -0.7735170000000  0.1876010000000 1.0   0.03
O      2 -0.1308330000000 -0.4703570000000  0.3017570000000 1.0   0.03
O      2  0.4562780000000 -0.2124750000000  0.1585180000000 1.0   0.03
O      2  0.1792550000000 -0.7735170000000 -0.1876010000000 1.0   0.03
O      2 -0.1308330000000 -0.4703570000000 -0.3017570000000 1.0   0.03
O      2  0.4562780000000 -0.2124750000000 -0.1585180000000 1.0   0.03
O      2 -0.3900920000000 -0.0737280000000  0.5000000000000 1.0   0.21
O      2 -0.0927160000000  0.4776190000000  0.0000000000000 1.0   0.02
P      3  0.1242780000000 -0.4926180000000  0.1758720000000 1.0   0.01
P      3  0.1242780000000 -0.4926180000000 -0.1758720000000 1.0   0.01
Fe     4  0.3951530000000  0.0770240000000  0.0000000000000 1.0   3.87
Fe     4  0.6634420000000  0.2966100000000 -0.5000000000000 1.0   3.78
END
