TITL 4LFP_actual-201126-125914-d3229f 0.0169 306.715139 -1.21403782E+004 20.0000 20.0456 28 (Cmc21) n - 1
REM
REM Run started: Thu, 26 Nov 2020 14:52:42 +0000 in /lustre/scratch/uccabz1/launch_tmp/launcher_2020-11-26-12-59-06-345429
REM CASTEP 20.1 from code version af48c487+ pr-geom-scf-spinfix Tue Jun 2 15:39:59 2020 +0100
REM Functional Perdew Burke Ernzerhof Relativity Koelling-Harmon Dispersion off
REM Cut-off 300.0000 eV Grid scale 1.7500 Gmax 15.5288 1/A FBSC none
REM MP grid 3 3 2 Offset 0.000 0.000 0.000 No. kpts 4 Spacing 0.07
REM Total runtime: 6514.94 s
REM Overall efficiency: 74.1667 %
REM
REM 4LFP_actual.cell (cb690b6ff984803026f07b083c6867a4)
REM
REM compiler GCC version 4.9.2
REM options -cpp -iprefix /lustre/shared/ucl/apps/gcc/4.9.2/bin/../lib/gcc/x86_64-unknown-linux-gnu/4.9.2/ -mtune=corei7 -march=x86-64 -g -Og
REM COMMAND_LINE
REM seed 1906078023 437030766 -1796410998 -830984269 -1167251332 150738887 69373839 -2046738110 -2006975625 -871043503 1854335818 1965379231
REM
REM P 3|1.8|4|5|5|30:31:32(qc=5)
REM O 2|1.5|12|13|15|20:21(qc=5)
REM Li 1|1.3|8|9|10|10U:20(qc=5)
REM Fe 3|2.2|2.0|1.0|8|9|10|40:41:32(qc=5)
REM Fe d:4.0 
REM
CELL 1.54180    5.68486    5.68486   10.35568   90.00000   90.00000   66.41480
LATT -1
SFAC Li O  P  Fe 
Li     1  0.1480450000000  0.1480450000000 -0.4550880000000 1.0  -0.01
Li     1 -0.1480450000000 -0.1480450000000  0.0449120000000 1.0  -0.01
Li     1  0.3990840000000  0.3990840000000  0.0640080000000 1.0  -0.01
Li     1 -0.3990840000000 -0.3990840000000 -0.4359920000000 1.0  -0.01
O      2 -0.2359240000000  0.2670450000000 -0.3266490000000 1.0   0.09
O      2 -0.4738650000000  0.0287110000000 -0.2134050000000 1.0   0.12
O      2 -0.4644690000000  0.0268380000000 -0.4573970000000 1.0   0.09
O      2  0.2359240000000 -0.2670450000000  0.1733510000000 1.0   0.09
O      2  0.4738650000000 -0.0287110000000  0.2865950000000 1.0   0.12
O      2  0.4644690000000 -0.0268380000000  0.0426030000000 1.0   0.09
O      2 -0.2670450000000  0.2359240000000  0.1733510000000 1.0   0.09
O      2 -0.0287110000000  0.4738650000000  0.2865950000000 1.0   0.12
O      2 -0.0268380000000  0.4644690000000  0.0426030000000 1.0   0.09
O      2  0.2670450000000 -0.2359240000000 -0.3266490000000 1.0   0.09
O      2  0.0287110000000 -0.4738650000000 -0.2134050000000 1.0   0.12
O      2  0.0268380000000 -0.4644690000000 -0.4573970000000 1.0   0.09
O      2 -0.0003200000000 -0.0003200000000 -0.0809090000000 1.0   0.51
O      2  0.0003200000000  0.0003200000000  0.4190910000000 1.0   0.51
O      2 -0.4920930000000 -0.4920930000000 -0.0824740000000 1.0   0.57
O      2  0.4920930000000  0.4920930000000  0.4175260000000 1.0   0.57
P      3 -0.3172290000000  0.0373820000000 -0.3324770000000 1.0   0.01
P      3  0.3172290000000 -0.0373820000000  0.1675230000000 1.0   0.01
P      3 -0.0373820000000  0.3172290000000  0.1675230000000 1.0   0.01
P      3  0.0373820000000 -0.3172290000000 -0.3324770000000 1.0   0.01
Fe     4  0.1523920000000 -0.3445210000000  0.3684080000000 1.0   4.16
Fe     4 -0.1523920000000  0.3445210000000 -0.1315920000000 1.0   4.16
Fe     4  0.3445210000000 -0.1523920000000 -0.1315920000000 1.0   4.16
Fe     4 -0.3445210000000  0.1523920000000  0.3684080000000 1.0   4.16
END
