TITL 4LFP-201124-095254-ec31ec -0.0174 139.530537 -6.06423657E+003 8.02284 8.13660 14 (Pmn21) n - 1
REM
REM Run started: Tue, 24 Nov 2020 10:27:15 +0000 in /scratch/scratch/uccabz1/launch_tmp/launcher_2020-11-24-09-52-49-180202
REM CASTEP 19.11| from code version Version unavailable
REM Functional Perdew Burke Ernzerhof Relativity Koelling-Harmon Dispersion off
REM Cut-off 300.0000 eV Grid scale 1.7500 Gmax 15.5288 1/A FBSC none
REM MP grid 3 3 3 Offset 0.000 0.000 0.000 No. kpts 8 Spacing 0.07
REM Total runtime: 2465.85 s
REM Overall efficiency: 92.1429 %
REM
REM 4LFP.cell (a815d5d25b9f25a0a111bfe3624e67be)
REM
REM compiler GCC version 4.9.2
REM options -cpp -iprefix /scratch/UCL/applications/gcc/4.9.2/bin/../lib/gcc/x86_64-unknown-linux-gnu/4.9.2/ -mtune=corei7 -march=x86-64 -g -O2
REM COMMAND_LINE
REM seed 1890002257 50429621 -932544096 2044218736 -298357749 80654324 49385266 -1717948387 1168034355 -1129916815 -1623939021 1623402884
REM
REM P 3|1.8|4|5|5|30:31:32(qc=5)
REM O 2|1.5|12|13|15|20:21(qc=5)
REM Li 1|1.3|8|9|10|10U:20(qc=5)
REM Fe 3|2.2|2.0|1.0|8|9|10|40:41:32(qc=5)
REM Fe d:4.0 
REM
CELL 1.54180    5.24291    5.05045    5.26946   90.00000   90.00000   90.00000
LATT -1
SFAC Li O  P  Fe 
Li     1  0.2464910000000  0.0000000000000  0.3748370000000 1.0  -0.05
Li     1 -0.2535090000000  0.5000000000000 -0.3748370000000 1.0  -0.05
O      2 -0.3096990000000  0.2273760000000  0.3963030000000 1.0   0.04
O      2  0.1906550000000  0.2763890000000  0.1627820000000 1.0   0.06
O      2  0.1903010000000  0.2726240000000 -0.3963030000000 1.0   0.04
O      2  0.6906550000000  0.2236110000000 -0.1627820000000 1.0   0.06
O      2  0.1903010000000 -0.2726240000000 -0.3963030000000 1.0   0.04
O      2  0.6906550000000 -0.2236110000000 -0.1627820000000 1.0   0.06
O      2 -0.3096990000000 -0.2273760000000  0.3963030000000 1.0   0.04
O      2  0.1906550000000 -0.2763890000000  0.1627820000000 1.0   0.06
P      3 -0.2915000000000  0.0000000000000 -0.3891610000000 1.0   0.01
P      3  0.2085000000000  0.5000000000000  0.3891610000000 1.0   0.01
Fe     4  0.2966510000000  0.0000000000000 -0.1110500000000 1.0   3.85
Fe     4 -0.2033490000000  0.5000000000000  0.1110500000000 1.0   3.85
END
