TITL 4LFP-201124-084236-911e35 0.0322 145.642924 -6.06661638E+003 8.00000 8.14935 14 (P21/c) n - 1
REM
REM Run started: Tue, 24 Nov 2020 08:56:59 +0000 in /scratch/scratch/uccabz1/launch_tmp/launcher_2020-11-24-08-42-28-033492
REM CASTEP 19.11| from code version Version unavailable
REM Functional Perdew Burke Ernzerhof Relativity Koelling-Harmon Dispersion off
REM Cut-off 300.0000 eV Grid scale 1.7500 Gmax 15.5288 1/A FBSC none
REM MP grid 3 3 3 Offset 0.000 0.000 0.000 No. kpts 10 Spacing 0.07
REM Total runtime: 1031.31 s
REM Overall efficiency: 72.2 %
REM
REM 4LFP.cell (a815d5d25b9f25a0a111bfe3624e67be)
REM
REM compiler GCC version 4.9.2
REM options -cpp -iprefix /scratch/UCL/applications/gcc/4.9.2/bin/../lib/gcc/x86_64-unknown-linux-gnu/4.9.2/ -mtune=corei7 -march=x86-64 -g -O2
REM COMMAND_LINE
REM seed 416177565 -1230643709 1451578544 -1036679091 1026378440 -23082285 -493774432 -2008212174 -1071961230 -962947839 1436475699 648409254
REM
REM P 3|1.8|4|5|5|30:31:32(qc=5)
REM O 2|1.5|12|13|15|20:21(qc=5)
REM Li 1|1.3|8|9|10|10U:20(qc=5)
REM Fe 3|2.2|2.0|1.0|8|9|10|40:41:32(qc=5)
REM Fe d:4.0 
REM
CELL 1.54180    5.48211    5.08260    5.95504   90.00000  118.62783   90.00000
LATT -1
SFAC Li O  P  Fe 
Li     1  0.0000000000000 -0.0000000000000 -0.0000000000000 1.0  -0.04
Li     1  0.0000000000000 -0.5000000000000 -0.5000000000000 1.0  -0.04
O      2 -0.6562010000000 -0.1860900000000 -0.8644370000000 1.0   0.07
O      2 -0.2263400000000 -0.1746270000000 -0.8633260000000 1.0   0.04
O      2  0.6562010000000  0.3139100000000  0.3644370000000 1.0   0.07
O      2  0.2263400000000  0.3253730000000  0.3633260000000 1.0   0.04
O      2  0.6562010000000  0.1860900000000  0.8644370000000 1.0   0.07
O      2  0.2263400000000  0.1746270000000  0.8633260000000 1.0   0.04
O      2 -0.6562010000000 -0.3139100000000 -0.3644370000000 1.0   0.07
O      2 -0.2263400000000 -0.3253730000000 -0.3633260000000 1.0   0.04
P      3 -0.5000000000000 -0.0000000000000 -1.0000000000000 1.0  -0.01
P      3 -0.5000000000000 -0.5000000000000 -0.5000000000000 1.0  -0.01
Fe     4 -0.5000000000000 -0.0000000000000 -0.5000000000000 1.0   3.81
Fe     4 -0.5000000000000  0.5000000000000 -1.0000000000000 1.0   3.81
END
