TITL 4LFP-201124-131856-a5abec -0.0050 166.519466 -6.07431074E+003 8.00000 8.13638 14 (P-1) n - 1
REM
REM Run started: Tue, 24 Nov 2020 14:15:18 +0000 in /lustre/scratch/uccabz1/launch_tmp/launcher_2020-11-24-13-18-47-514863
REM CASTEP 20.1 from code version af48c487+ pr-geom-scf-spinfix Tue Jun 2 15:39:59 2020 +0100
REM Functional Perdew Burke Ernzerhof Relativity Koelling-Harmon Dispersion off
REM Cut-off 300.0000 eV Grid scale 1.7500 Gmax 15.5288 1/A FBSC none
REM MP grid 4 4 2 Offset 0.000 0.000 0.000 No. kpts 16 Spacing 0.07
REM Total runtime: 3584.43 s
REM Overall efficiency: 86.2 %
REM
REM 4LFP.cell (a815d5d25b9f25a0a111bfe3624e67be)
REM
REM compiler GCC version 4.9.2
REM options -cpp -iprefix /lustre/shared/ucl/apps/gcc/4.9.2/bin/../lib/gcc/x86_64-unknown-linux-gnu/4.9.2/ -mtune=corei7 -march=x86-64 -g -Og
REM COMMAND_LINE
REM seed 2005197887 -1928364547 1406512657 -718255898 1914348652 -1049606418 -1616571013 -2081985269 2100137788 1273850796 231690778 -699359356
REM
REM P 3|1.8|4|5|5|30:31:32(qc=5)
REM O 2|1.5|12|13|15|20:21(qc=5)
REM Li 1|1.3|8|9|10|10U:20(qc=5)
REM Fe 3|2.2|2.0|1.0|8|9|10|40:41:32(qc=5)
REM Fe d:4.0 
REM
CELL 1.54180    5.09110    5.31316    7.48274   97.89788  108.55141   60.23386
LATT -1
SFAC Li O  P  Fe 
Li     1 -0.2441740000000  0.2510410000000  0.0382240000000 1.0  -0.02
Li     1  0.2441740000000 -0.2510410000000 -0.0382240000000 1.0  -0.02
O      2 -0.6169830000000  0.3079850000000  0.4419240000000 1.0   0.06
O      2 -0.2251090000000 -0.0732350000000  0.2700150000000 1.0   0.05
O      2 -0.7990390000000  0.0559580000000  0.1561760000000 1.0   0.03
O      2 -0.6197340000000  0.4289070000000  0.1307010000000 1.0   0.04
O      2  0.6169830000000 -0.3079850000000 -0.4419240000000 1.0   0.06
O      2  0.2251090000000  0.0732350000000 -0.2700150000000 1.0   0.05
O      2  0.7990390000000 -0.0559580000000 -0.1561760000000 1.0   0.03
O      2  0.6197340000000 -0.4289070000000 -0.1307010000000 1.0   0.04
P      3 -0.5642070000000  0.1745870000000  0.2474490000000 1.0   0.01
P      3  0.5642070000000 -0.1745870000000 -0.2474490000000 1.0   0.01
Fe     4 -0.2304800000000  0.2472000000000 -0.3435470000000 1.0   3.83
Fe     4  0.2304800000000 -0.2472000000000  0.3435470000000 1.0   3.83
END
