TITL 4LFP-201124-055954-e9785a 0.0135 140.213905 -6.07302430E+003 8.00000 8.15082 14 (P2/c) n - 1
REM
REM Run started: Tue, 24 Nov 2020 07:10:12 +0000 in /scratch/scratch/uccabz1/launch_tmp/launcher_2020-11-24-05-59-51-835506
REM CASTEP 19.11| from code version Version unavailable
REM Functional Perdew Burke Ernzerhof Relativity Koelling-Harmon Dispersion off
REM Cut-off 300.0000 eV Grid scale 1.7500 Gmax 15.5288 1/A FBSC none
REM MP grid 5 4 2 Offset 0.000 0.000 0.000 No. kpts 10 Spacing 0.07
REM Total runtime: 4465.33 s
REM Overall efficiency: 83.125 %
REM
REM 4LFP.cell (a815d5d25b9f25a0a111bfe3624e67be)
REM
REM compiler GCC version 4.9.2
REM options -cpp -iprefix /scratch/UCL/applications/gcc/4.9.2/bin/../lib/gcc/x86_64-unknown-linux-gnu/4.9.2/ -mtune=corei7 -march=x86-64 -g -O2
REM COMMAND_LINE
REM seed -1913582595 -857328988 -790070117 -1055641914 -1541688528 -312221872 189152080 -261501786 -1166370236 -2031218249 1239792324 -1059709795
REM
REM P 3|1.8|4|5|5|30:31:32(qc=5)
REM O 2|1.5|12|13|15|20:21(qc=5)
REM Li 1|1.3|8|9|10|10U:20(qc=5)
REM Fe 3|2.2|2.0|1.0|8|9|10|40:41:32(qc=5)
REM Fe d:4.0 
REM
CELL 1.54180    4.12399    5.82588    7.41245   90.00000   90.00000  128.06440
LATT -1
SFAC Li O  P  Fe 
Li     1 -0.2500000000000  0.2500000000000 -0.0126040000000 1.0  -0.03
Li     1  0.2500000000000 -0.2500000000000  0.0126040000000 1.0  -0.03
O      2 -0.2611240000000 -0.0284900000000  0.1472770000000 1.0   0.03
O      2  0.1431590000000 -0.0728000000000  0.3799870000000 1.0   0.06
O      2  0.7611240000000  0.5284900000000  0.1472770000000 1.0   0.03
O      2  0.3568410000000  0.5728000000000  0.3799870000000 1.0   0.06
O      2  0.2611240000000  0.0284900000000 -0.1472770000000 1.0   0.03
O      2 -0.1431590000000  0.0728000000000 -0.3799870000000 1.0   0.06
O      2 -0.7611240000000 -0.5284900000000 -0.1472770000000 1.0   0.03
O      2 -0.3568410000000 -0.5728000000000 -0.3799870000000 1.0   0.06
P      3  0.2500000000000  0.2500000000000 -0.2604540000000 1.0   0.02
P      3 -0.2500000000000 -0.2500000000000  0.2604540000000 1.0   0.02
Fe     4 -0.2500000000000  0.2500000000000  0.3736680000000 1.0   3.82
Fe     4  0.2500000000000  0.7500000000000 -0.3736680000000 1.0   3.82
END
