TITL 4LFP_actual-201126-124232-549c14 -0.0052 303.526036 -1.21464532E+004 16.0000 16.3582 28 (C2) n - 1
REM
REM Run started: Thu, 26 Nov 2020 19:33:47 +0000 in /lustre/scratch/uccabz1/launch_tmp/launcher_2020-11-26-12-42-05-695883
REM CASTEP 20.1 from code version af48c487+ pr-geom-scf-spinfix Tue Jun 2 15:39:59 2020 +0100
REM Functional Perdew Burke Ernzerhof Relativity Koelling-Harmon Dispersion off
REM Cut-off 300.0000 eV Grid scale 1.7500 Gmax 15.5288 1/A FBSC none
REM MP grid 3 3 2 Offset 0.000 0.000 0.000 No. kpts 9 Spacing 0.07
REM Total runtime: 27389.7 s
REM Overall efficiency: 78.4444 %
REM
REM 4LFP_actual.cell (cb690b6ff984803026f07b083c6867a4)
REM
REM compiler GCC version 4.9.2
REM options -cpp -iprefix /lustre/shared/ucl/apps/gcc/4.9.2/bin/../lib/gcc/x86_64-unknown-linux-gnu/4.9.2/ -mtune=corei7 -march=x86-64 -g -Og
REM COMMAND_LINE
REM seed -1730345486 -465457886 -2024627044 -1511191791 1284367781 -816993747 -1109650612 -1170705122 802664444 -1889753939 1576372094 -248654546
REM
REM P 3|1.8|4|5|5|30:31:32(qc=5)
REM O 2|1.5|12|13|15|20:21(qc=5)
REM Li 1|1.3|8|9|10|10U:20(qc=5)
REM Fe 3|2.2|2.0|1.0|8|9|10|40:41:32(qc=5)
REM Fe d:4.0 
REM
CELL 1.54180    6.16840    6.16840    9.07574  107.64060  102.08865  104.24017
LATT -1
SFAC Li O  P  Fe 
Li     1 -0.3853190000000 -0.3692880000000  0.2379930000000 1.0  -0.03
Li     1  0.3927200000000  0.3766890000000 -0.2379930000000 1.0  -0.03
Li     1  0.0434390000000  0.0137920000000  0.1887420000000 1.0  -0.05
Li     1 -0.1749500000000 -0.1453020000000 -0.1887420000000 1.0  -0.05
O      2 -0.4632380000000  0.2884020000000  0.1168920000000 1.0   0.03
O      2 -0.0734400000000  0.2298970000000  0.1041730000000 1.0   0.04
O      2 -0.3776830000000  0.2133170000000 -0.1525090000000 1.0   0.05
O      2 -0.1448100000000  0.6075850000000  0.0887270000000 1.0   0.04
O      2  0.1715100000000 -0.5801300000000 -0.1168920000000 1.0   0.03
O      2  0.1257240000000 -0.1776140000000 -0.1041730000000 1.0   0.04
O      2  0.3658250000000 -0.2251740000000  0.1525090000000 1.0   0.05
O      2  0.5188580000000 -0.2335370000000 -0.0887270000000 1.0   0.04
O      2  0.3481780000000  0.1998990000000 -0.6355580000000 1.0   0.05
O      2  0.2428850000000  0.5012580000000 -0.4111490000000 1.0   0.05
O      2  0.6558940000000  0.5008330000000 -0.3700430000000 1.0   0.04
O      2  0.4528330000000  0.6395760000000 -0.5903920000000 1.0   0.04
O      2 -0.1645430000000 -0.0162640000000  0.6355580000000 1.0   0.05
O      2 -0.0875930000000 -0.3459660000000  0.4111490000000 1.0   0.05
O      2 -0.1291240000000  0.0259380000000  0.3700430000000 1.0   0.04
O      2  0.2299680000000  0.0432250000000  0.5903920000000 1.0   0.04
P      3 -0.2646420000000  0.3307070000000  0.0371760000000 1.0   0.01
P      3  0.2935310000000 -0.3018180000000 -0.0371760000000 1.0   0.01
P      3  0.4235230000000  0.4566180000000 -0.5037060000000 1.0   0.01
P      3 -0.0396760000000 -0.0727710000000  0.5037060000000 1.0   0.01
Fe     4  0.3377440000000 -0.1307250000000 -0.2704040000000 1.0   3.85
Fe     4  0.1396790000000 -0.3918510000000  0.2704040000000 1.0   3.85
Fe     4 -0.1450830000000  0.3341480000000 -0.2823820000000 1.0   3.86
Fe     4 -0.3834700000000  0.1372980000000  0.2823820000000 1.0   3.86
END
