TITL 4LFP_actual-201126-092455-12644e -0.0169 310.871551 -1.21320729E+004 15.9925 16.7155 28 (Pnn2) n - 1
REM
REM Run started: Thu, 26 Nov 2020 09:59:25 +0000 in /lustre/scratch/uccabz1/launch_tmp/launcher_2020-11-26-09-24-47-271126
REM CASTEP 20.1 from code version af48c487+ pr-geom-scf-spinfix Tue Jun 2 15:39:59 2020 +0100
REM Functional Perdew Burke Ernzerhof Relativity Koelling-Harmon Dispersion off
REM Cut-off 300.0000 eV Grid scale 1.7500 Gmax 15.5288 1/A FBSC none
REM MP grid 4 2 2 Offset 0.000 0.000 0.000 No. kpts 2 Spacing 0.07
REM Total runtime: 2561.64 s
REM Overall efficiency: 78.1667 %
REM
REM 4LFP_actual.cell (cb690b6ff984803026f07b083c6867a4)
REM
REM compiler GCC version 4.9.2
REM options -cpp -iprefix /lustre/shared/ucl/apps/gcc/4.9.2/bin/../lib/gcc/x86_64-unknown-linux-gnu/4.9.2/ -mtune=corei7 -march=x86-64 -g -Og
REM COMMAND_LINE
REM seed -643590974 917197940 1403491545 -1391183217 1411826351 -667780568 2082485970 -583344504 -164444584 -1507458461 279301561 1700892297
REM
REM P 3|1.8|4|5|5|30:31:32(qc=5)
REM O 2|1.5|12|13|15|20:21(qc=5)
REM Li 1|1.3|8|9|10|10U:20(qc=5)
REM Fe 3|2.2|2.0|1.0|8|9|10|40:41:32(qc=5)
REM Fe d:4.0 
REM
CELL 1.54180    3.64349    8.58684    9.93643   90.00000   90.00000   90.00000
LATT -1
SFAC Li O  P  Fe 
Li     1 -0.4077740000000 -0.1460160000000  0.1139460000000 1.0  -0.02
Li     1  0.4077740000000  0.1460160000000  0.1139460000000 1.0  -0.02
Li     1 -0.0922260000000  0.3539840000000 -0.3860540000000 1.0  -0.02
Li     1  0.0922260000000 -0.3539840000000 -0.3860540000000 1.0  -0.02
O      2  0.8808630000000  0.3438950000000 -0.1772860000000 1.0   0.01
O      2  0.3820090000000  0.1546190000000 -0.0823750000000 1.0  -0.02
O      2  0.5190320000000  0.1753870000000 -0.3389680000000 1.0   0.04
O      2 -0.8808630000000 -0.3438950000000 -0.1772860000000 1.0   0.01
O      2 -0.3820090000000 -0.1546190000000 -0.0823750000000 1.0  -0.02
O      2 -0.5190320000000 -0.1753870000000 -0.3389680000000 1.0   0.04
O      2 -0.3808630000000 -0.1561050000000  0.3227140000000 1.0   0.01
O      2  0.1179910000000 -0.3453810000000  0.4176250000000 1.0  -0.02
O      2 -0.0190320000000 -0.3246130000000  0.1610320000000 1.0   0.04
O      2  0.3808630000000  0.1561050000000  0.3227140000000 1.0   0.01
O      2 -0.1179910000000  0.3453810000000  0.4176250000000 1.0  -0.02
O      2  0.0190320000000  0.3246130000000  0.1610320000000 1.0   0.04
O      2 -0.0000000000000 -0.0000000000000  0.0929250000000 1.0   0.31
O      2 -0.5000000000000 -0.5000000000000 -0.4070750000000 1.0   0.31
O      2 -0.0000000000000 -0.0000000000000 -0.4898140000000 1.0   0.65
O      2 -0.5000000000000 -0.5000000000000  0.0101860000000 1.0   0.65
P      3  0.6644660000000  0.1942990000000 -0.1965720000000 1.0  -0.04
P      3 -0.6644660000000 -0.1942990000000 -0.1965720000000 1.0  -0.04
P      3 -0.1644660000000 -0.3057010000000  0.3034280000000 1.0  -0.04
P      3  0.1644660000000  0.3057010000000  0.3034280000000 1.0  -0.04
Fe     4 -0.0000000000000 -0.0000000000000 -0.0856690000000 1.0   2.94
Fe     4  0.5000000000000  0.5000000000000  0.4143310000000 1.0   2.94
Fe     4 -0.0000000000000 -0.5000000000000 -0.0054040000000 1.0   4.15
Fe     4 -0.5000000000000 -0.0000000000000  0.4945960000000 1.0   4.15
END
