TITL 4LFP_actual-201126-111726-3d5531 -0.0127 296.761277 -1.21458510E+004 16.0000 16.4054 28 (Fdd2) n - 1
REM
REM Run started: Thu, 26 Nov 2020 16:08:42 +0000 in /lustre/scratch/uccabz1/launch_tmp/launcher_2020-11-26-11-17-17-985305
REM CASTEP 20.1 from code version af48c487+ pr-geom-scf-spinfix Tue Jun 2 15:39:59 2020 +0100
REM Functional Perdew Burke Ernzerhof Relativity Koelling-Harmon Dispersion off
REM Cut-off 300.0000 eV Grid scale 1.7500 Gmax 15.5288 1/A FBSC none
REM MP grid 4 2 2 Offset 0.000 0.000 0.000 No. kpts 8 Spacing 0.07
REM Total runtime: 18346.2 s
REM Overall efficiency: 90.2222 %
REM
REM 4LFP_actual.cell (cb690b6ff984803026f07b083c6867a4)
REM
REM compiler GCC version 4.9.2
REM options -cpp -iprefix /lustre/shared/ucl/apps/gcc/4.9.2/bin/../lib/gcc/x86_64-unknown-linux-gnu/4.9.2/ -mtune=corei7 -march=x86-64 -g -Og
REM COMMAND_LINE
REM seed 1238816889 603494850 -1460566599 -1164001146 1440880803 1860075284 855466126 -542390228 475357801 762325019 -2054778928 673300490
REM
REM P 3|1.8|4|5|5|30:31:32(qc=5)
REM O 2|1.5|12|13|15|20:21(qc=5)
REM Li 1|1.3|8|9|10|10U:20(qc=5)
REM Fe 3|2.2|2.0|1.0|8|9|10|40:41:32(qc=5)
REM Fe d:4.0 
REM
CELL 1.54180    5.26902    8.07017    7.83946   83.70161   70.36312   70.94651
LATT -1
SFAC Li O  P  Fe 
Li     1  0.4694930000000 -0.3881560000000  0.2877080000000 1.0  -0.04
Li     1 -0.0813370000000 -0.3881560000000 -0.2877080000000 1.0  -0.04
Li     1  0.5072000000000  0.1118440000000  0.2122920000000 1.0  -0.04
Li     1  0.3809560000000  0.1118440000000 -0.2122920000000 1.0  -0.04
O      2  0.1456440000000  0.2702120000000  0.4261600000000 1.0   0.05
O      2  0.4015280000000  0.4248100000000  0.1820430000000 1.0   0.05
O      2 -0.1078100000000  0.4685130000000  0.2025070000000 1.0   0.05
O      2 -0.0166610000000  0.6067420000000  0.4403060000000 1.0   0.02
O      2  0.5841450000000  0.2702120000000 -0.4261600000000 1.0   0.05
O      2  0.1736620000000  0.4248100000000 -0.1820430000000 1.0   0.05
O      2  0.6392970000000  0.4685130000000 -0.2025070000000 1.0   0.05
O      2  0.4099190000000  0.6067420000000 -0.4403070000000 1.0   0.02
O      2  0.3218030000000 -0.2297880000000  0.0738400000000 1.0   0.05
O      2  0.3335710000000 -0.0751900000000  0.3179570000000 1.0   0.05
O      2 -0.1553030000000 -0.0314870000000  0.2974930000000 1.0   0.05
O      2  0.1736460000000  0.1067420000000  0.0596930000000 1.0   0.02
O      2 -0.0920150000000 -0.2297880000000 -0.0738400000000 1.0   0.05
O      2 -0.2583810000000 -0.0751900000000 -0.3179570000000 1.0   0.05
O      2  0.1867900000000 -0.0314870000000 -0.2974930000000 1.0   0.05
O      2 -0.2803880000000  0.1067420000000 -0.0596940000000 1.0   0.02
P      3  0.0929990000000  0.4416470000000  0.3205570000000 1.0   0.01
P      3  0.4653540000000  0.4416470000000 -0.3205570000000 1.0   0.01
P      3  0.1635560000000 -0.0583530000000  0.1794430000000 1.0   0.01
P      3 -0.1052020000000 -0.0583530000000 -0.1794430000000 1.0   0.01
Fe     4 -0.4108290000000 -0.1783410000000  0.5000000000000 1.0   3.91
Fe     4 -0.1608290000000  0.3216590000000 -0.0000000000000 1.0   3.91
Fe     4 -0.0448480000000  0.0896960000000 -0.5000000000000 1.0   3.80
Fe     4  0.2051520000000 -0.4103040000000 -0.0000000000000 1.0   3.80
END
