TITL 4LFP-201124-101843-ead599 -0.0259 145.365731 -6.07387740E+003 8.00000 8.13248 14 (Fdd2) n - 1
REM
REM Run started: Tue, 24 Nov 2020 11:18:16 +0000 in /scratch/scratch/uccabz1/launch_tmp/launcher_2020-11-24-10-18-40-325316
REM CASTEP 19.11| from code version Version unavailable
REM Functional Perdew Burke Ernzerhof Relativity Koelling-Harmon Dispersion off
REM Cut-off 300.0000 eV Grid scale 1.7500 Gmax 15.5288 1/A FBSC none
REM MP grid 4 4 3 Offset 0.000 0.000 0.000 No. kpts 16 Spacing 0.07
REM Total runtime: 3697.76 s
REM Overall efficiency: 91.3 %
REM
REM 4LFP.cell (a815d5d25b9f25a0a111bfe3624e67be)
REM
REM compiler GCC version 4.9.2
REM options -cpp -iprefix /scratch/UCL/applications/gcc/4.9.2/bin/../lib/gcc/x86_64-unknown-linux-gnu/4.9.2/ -mtune=corei7 -march=x86-64 -g -O2
REM COMMAND_LINE
REM seed -2147308895 344435082 1657623264 -1522634491 737909182 -551403422 -973436928 -531067813 -960550 -870799400 380050376 163344145
REM
REM P 3|1.8|4|5|5|30:31:32(qc=5)
REM O 2|1.5|12|13|15|20:21(qc=5)
REM Li 1|1.3|8|9|10|10U:20(qc=5)
REM Fe 3|2.2|2.0|1.0|8|9|10|40:41:32(qc=5)
REM Fe d:4.0 
REM
CELL 1.54180    5.46450    5.46450    6.18812  103.57928  103.57928  117.91978
LATT -1
SFAC Li O  P  Fe 
Li     1  0.1844240000000 -0.1844240000000 -0.0000000000000 1.0  -0.04
Li     1 -0.0655760000000  0.0655760000000 -0.5000000000000 1.0  -0.04
O      2  0.0627810000000 -0.2278190000000  0.6561720000000 1.0   0.03
O      2  0.5226010000000  0.3249510000000  0.1546350000000 1.0   0.05
O      2  0.2278190000000 -0.0627810000000 -0.6561720000000 1.0   0.03
O      2 -0.3249510000000 -0.5226010000000 -0.1546350000000 1.0   0.05
O      2 -0.8433910000000 -0.6339910000000 -0.1561720000000 1.0   0.03
O      2  0.1179660000000  0.4203170000000  0.3453650000000 1.0   0.05
O      2  0.6339910000000  0.8433910000000  0.1561720000000 1.0   0.03
O      2 -0.4203170000000 -0.1179660000000 -0.3453650000000 1.0   0.05
P      3  0.4924160000000  0.5075840000000 -0.0000000000000 1.0   0.01
P      3 -0.7575840000000 -0.2424160000000 -0.5000000000000 1.0   0.01
Fe     4 -0.1867510000000  0.1867510000000 -0.0000000000000 1.0   3.89
Fe     4  0.5632490000000  0.4367510000000  0.5000000000000 1.0   3.89
END
