TITL 4LFP-201124-103932-72d528 -0.0797 164.500234 -6.07438321E+003 8.00000 8.14304 14 (P-1) n - 1
REM
REM Run started: Tue, 24 Nov 2020 13:01:41 +0000 in /lustre/scratch/uccabz1/launch_tmp/launcher_2020-11-24-12-23-57-272090
REM CASTEP 20.1 from code version af48c487+ pr-geom-scf-spinfix Tue Jun 2 15:39:59 2020 +0100
REM Functional Perdew Burke Ernzerhof Relativity Koelling-Harmon Dispersion off
REM Cut-off 300.0000 eV Grid scale 1.7500 Gmax 15.5288 1/A FBSC none
REM MP grid 4 4 2 Offset 0.000 0.000 0.000 No. kpts 16 Spacing 0.07
REM Total runtime: 7138.38 s
REM Overall efficiency: 91.3 %
REM
REM
REM
REM compiler GCC version 4.9.2
REM options -cpp -iprefix /lustre/shared/ucl/apps/gcc/4.9.2/bin/../lib/gcc/x86_64-unknown-linux-gnu/4.9.2/ -mtune=corei7 -march=x86-64 -g -Og
REM COMMAND_LINE
REM seed -1400772956 404011149 2048544235 -434782203 -250323544 508456878 -878594629 -1229394968 -71142348 -1230108947 703029459 -63121643
REM
REM P 3|1.8|4|5|5|30:31:32(qc=5)
REM O 2|1.5|12|13|15|20:21(qc=5)
REM Li 1|1.3|8|9|10|10U:20(qc=5)
REM Fe 3|2.2|2.0|1.0|8|9|10|40:41:32(qc=5)
REM Fe d:4.0 
REM
CELL 1.54180    4.96151    5.22818    9.03754   58.85498   61.05995   59.19058
LATT -1
SFAC Li O  P  Fe 
Li     1 -0.2530990000000 -0.3750960000000 -0.3785160000000 1.0  -0.03
Li     1  0.2530990000000  0.3750960000000  0.3785160000000 1.0  -0.03
O      2  0.0737540000000  0.1981140000000 -0.3717440000000 1.0   0.03
O      2 -0.2752330000000 -0.1445250000000 -0.2559630000000 1.0   0.03
O      2  0.3358680000000 -0.3978090000000 -0.3183890000000 1.0   0.05
O      2  0.0006160000000 -0.1805140000000 -0.0615670000000 1.0   0.06
O      2 -0.0737540000000 -0.1981140000000  0.3717440000000 1.0   0.03
O      2  0.2752330000000  0.1445250000000  0.2559630000000 1.0   0.03
O      2 -0.3358680000000  0.3978090000000  0.3183890000000 1.0   0.05
O      2 -0.0006160000000  0.1805140000000  0.0615670000000 1.0   0.06
P      3  0.0273080000000 -0.1316510000000 -0.2525640000000 1.0   0.01
P      3 -0.0273080000000  0.1316510000000  0.2525640000000 1.0   0.01
Fe     4 -0.2688850000000 -0.1766310000000  0.1864040000000 1.0   3.85
Fe     4  0.2688850000000  0.1766310000000 -0.1864040000000 1.0   3.85
END
