TITL 4LFP_actual-201126-202829-480b6d -0.0354 308.783511 -1.21487990E+004 16.0000 16.2906 28 (P21) n - 1
REM
REM Run started: Fri, 27 Nov 2020 00:17:20 +0000 in /lustre/scratch/uccabz1/launch_tmp/launcher_2020-11-26-20-28-28-037019
REM CASTEP 20.1 from code version af48c487+ pr-geom-scf-spinfix Tue Jun 2 15:39:59 2020 +0100
REM Functional Perdew Burke Ernzerhof Relativity Koelling-Harmon Dispersion off
REM Cut-off 300.0000 eV Grid scale 1.7500 Gmax 15.5288 1/A FBSC none
REM MP grid 3 3 3 Offset 0.000 0.000 0.000 No. kpts 10 Spacing 0.07
REM Total runtime: 14545.8 s
REM Overall efficiency: 79.1667 %
REM
REM 4LFP_actual.cell (cb690b6ff984803026f07b083c6867a4)
REM
REM compiler GCC version 4.9.2
REM options -cpp -iprefix /lustre/shared/ucl/apps/gcc/4.9.2/bin/../lib/gcc/x86_64-unknown-linux-gnu/4.9.2/ -mtune=corei7 -march=x86-64 -g -Og
REM COMMAND_LINE
REM seed 2037923222 -37334624 -688215193 -2055450139 1530909438 -1121474036 -68272588 1563398215 51042609 -1015120717 -1167051556 1129911578
REM
REM P 3|1.8|4|5|5|30:31:32(qc=5)
REM O 2|1.5|12|13|15|20:21(qc=5)
REM Li 1|1.3|8|9|10|10U:20(qc=5)
REM Fe 3|2.2|2.0|1.0|8|9|10|40:41:32(qc=5)
REM Fe d:4.0 
REM
CELL 1.54180    7.59661    6.09287    7.30839   90.00000  114.10028   90.00000
LATT -1
SFAC Li O  P  Fe 
Li     1 -0.5900000000000 -0.2343430000000 -0.2907880000000 1.0  -0.04
Li     1  0.5900000000000  0.2656570000000  0.2907880000000 1.0  -0.04
Li     1  0.0310710000000 -0.3928870000000 -0.5420750000000 1.0  -0.02
Li     1 -0.0310710000000  0.1071130000000  0.5420750000000 1.0  -0.02
O      2 -0.2495070000000 -0.5066190000000 -0.2113350000000 1.0   0.06
O      2 -0.0871150000000 -0.1967800000000 -0.3199100000000 1.0   0.04
O      2 -0.2375120000000 -0.5014310000000 -0.5632750000000 1.0   0.02
O      2 -0.4562900000000 -0.2496580000000 -0.4741930000000 1.0   0.05
O      2  0.2495070000000 -0.0066190000000  0.2113350000000 1.0   0.06
O      2  0.0871150000000  0.3032200000000  0.3199100000000 1.0   0.04
O      2  0.2375120000000 -0.0014310000000  0.5632750000000 1.0   0.02
O      2  0.4562900000000  0.2503420000000  0.4741930000000 1.0   0.05
O      2  0.0799650000000 -0.7638480000000 -0.1834170000000 1.0   0.04
O      2  0.4507840000000 -0.7076760000000 -0.0073360000000 1.0   0.04
O      2  0.2508260000000 -0.4770320000000 -0.3051530000000 1.0   0.02
O      2  0.2174810000000 -0.4332190000000  0.0315320000000 1.0   0.06
O      2 -0.0799650000000 -0.2638480000000  0.1834170000000 1.0   0.04
O      2 -0.4507840000000 -0.2076760000000  0.0073360000000 1.0   0.04
O      2 -0.2508260000000  0.0229680000000  0.3051530000000 1.0   0.02
O      2 -0.2174810000000  0.0667810000000 -0.0315320000000 1.0   0.06
P      3 -0.2558150000000 -0.3655180000000 -0.3936220000000 1.0   0.01
P      3  0.2558150000000  0.1344820000000  0.3936220000000 1.0   0.01
P      3  0.2498650000000 -0.5970110000000 -0.1208040000000 1.0   0.01
P      3 -0.2498650000000 -0.0970110000000  0.1208040000000 1.0   0.01
Fe     4 -0.5461370000000 -0.2561260000000  0.2288630000000 1.0   3.86
Fe     4  0.5461370000000  0.2438740000000 -0.2288630000000 1.0   3.86
Fe     4  0.0383680000000 -0.0605740000000 -0.0546190000000 1.0   3.84
Fe     4 -0.0383680000000  0.4394260000000  0.0546190000000 1.0   3.84
END
