TITL 4LFP-201124-121122-85fe0f -0.0289 173.517347 -6.07182028E+003 8.00000 8.10167 14 (Pban) n - 1
REM
REM Run started: Tue, 24 Nov 2020 12:36:53 +0000 in /scratch/scratch/uccabz1/launch_tmp/launcher_2020-11-24-12-11-20-279447
REM CASTEP 19.11| from code version Version unavailable
REM Functional Perdew Burke Ernzerhof Relativity Koelling-Harmon Dispersion off
REM Cut-off 300.0000 eV Grid scale 1.7500 Gmax 15.5288 1/A FBSC none
REM MP grid 3 3 3 Offset 0.000 0.000 0.000 No. kpts 8 Spacing 0.07
REM Total runtime: 1933.85 s
REM Overall efficiency: 77.5714 %
REM
REM 4LFP.cell (a815d5d25b9f25a0a111bfe3624e67be)
REM
REM compiler GCC version 4.9.2
REM options -cpp -iprefix /scratch/UCL/applications/gcc/4.9.2/bin/../lib/gcc/x86_64-unknown-linux-gnu/4.9.2/ -mtune=corei7 -march=x86-64 -g -O2
REM COMMAND_LINE
REM seed 695493420 982939808 -363577249 -425376467 1586532332 1521860666 -1016831441 663402448 496990349 1417136629 2061108004 -1430444033
REM
REM P 3|1.8|4|5|5|30:31:32(qc=5)
REM O 2|1.5|12|13|15|20:21(qc=5)
REM Li 1|1.3|8|9|10|10U:20(qc=5)
REM Fe 3|2.2|2.0|1.0|8|9|10|40:41:32(qc=5)
REM Fe d:4.0 
REM
CELL 1.54180    6.44545    5.29641    5.08287   90.00000   90.00000   90.00000
LATT -1
SFAC Li O  P  Fe 
Li     1 -0.0000000000000 -0.5000000000000  0.3942530000000 1.0  -0.02
Li     1  0.5000000000000 -0.5000000000000 -0.1057470000000 1.0  -0.02
O      2  0.3812830000000 -0.3116960000000 -0.4219350000000 1.0   0.04
O      2  0.1202610000000 -0.6864290000000 -0.2933760000000 1.0   0.04
O      2 -0.3812830000000  0.3116960000000 -0.4219350000000 1.0   0.04
O      2 -0.1202610000000  0.6864290000000 -0.2933760000000 1.0   0.04
O      2  0.1187170000000 -0.3116960000000  0.0780650000000 1.0   0.04
O      2  0.3797390000000 -0.6864290000000  0.2066240000000 1.0   0.04
O      2 -0.1187170000000  0.3116960000000  0.0780650000000 1.0   0.04
O      2 -0.3797390000000  0.6864290000000  0.2066240000000 1.0   0.04
P      3 -0.0000000000000 -0.5000000000000 -0.1072070000000 1.0   0.01
P      3  0.5000000000000 -0.5000000000000  0.3927930000000 1.0   0.01
Fe     4 -0.5000000000000  0.0000000000000  0.3899890000000 1.0   3.86
Fe     4 -0.0000000000000  0.0000000000000 -0.1100110000000 1.0   3.86
END
