TITL 4LFP_actual-201126-215823-726292 0.0064 265.503925 -1.21335707E+004 16.0000 16.4852 28 (C2/c) n - 1
REM
REM Run started: Thu, 26 Nov 2020 22:46:10 +0000 in /lustre/scratch/uccabz1/launch_tmp/launcher_2020-11-26-21-57-57-051756
REM CASTEP 20.1 from code version af48c487+ pr-geom-scf-spinfix Tue Jun 2 15:39:59 2020 +0100
REM Functional Perdew Burke Ernzerhof Relativity Koelling-Harmon Dispersion off
REM Cut-off 300.0000 eV Grid scale 1.7500 Gmax 15.5288 1/A FBSC none
REM MP grid 3 3 3 Offset 0.000 0.000 0.000 No. kpts 10 Spacing 0.07
REM Total runtime: 3229.32 s
REM Overall efficiency: 76.8333 %
REM
REM 4LFP_actual.cell (cb690b6ff984803026f07b083c6867a4)
REM
REM compiler GCC version 4.9.2
REM options -cpp -iprefix /lustre/shared/ucl/apps/gcc/4.9.2/bin/../lib/gcc/x86_64-unknown-linux-gnu/4.9.2/ -mtune=corei7 -march=x86-64 -g -Og
REM COMMAND_LINE
REM seed 77580399 -1226973179 -69882000 -382871071 2070115636 -1743422589 1460958637 -1190941855 1970362456 1538015377 812941013 -804989235
REM
REM P 3|1.8|4|5|5|30:31:32(qc=5)
REM O 2|1.5|12|13|15|20:21(qc=5)
REM Li 1|1.3|8|9|10|10U:20(qc=5)
REM Fe 3|2.2|2.0|1.0|8|9|10|40:41:32(qc=5)
REM Fe d:4.0 
REM
CELL 1.54180    6.25033    6.25033    7.24031   79.42948   79.42948   74.73289
LATT -1
SFAC Li O  P  Fe 
Li     1  0.5000000000000 -0.0000000000000 -0.0000000000000 1.0  -0.01
Li     1 -0.5000000000000 -0.0000000000000 -0.5000000000000 1.0  -0.01
Li     1  0.1983990000000  0.3016010000000  0.2500000000000 1.0  -0.05
Li     1 -0.1983990000000 -0.3016010000000 -0.2500000000000 1.0  -0.05
O      2  0.2692920000000  0.0185590000000 -0.1320690000000 1.0   0.10
O      2 -0.0516790000000  0.3336980000000 -0.1605990000000 1.0   0.09
O      2  0.1569580000000  0.1733180000000 -0.4642250000000 1.0   0.02
O      2 -0.0980500000000 -0.0338780000000 -0.2807670000000 1.0   0.04
O      2  0.4814410000000  0.2307080000000 -0.3679310000000 1.0   0.10
O      2  0.1663020000000  0.5516790000000 -0.3394010000000 1.0   0.09
O      2  0.3266820000000  0.3430420000000 -0.0357750000000 1.0   0.02
O      2  0.5338780000000  0.5980500000000 -0.2192330000000 1.0   0.04
O      2 -0.2692920000000 -0.0185590000000  0.1320690000000 1.0   0.10
O      2  0.0516790000000 -0.3336980000000  0.1605990000000 1.0   0.09
O      2 -0.1569580000000 -0.1733180000000  0.4642250000000 1.0   0.02
O      2  0.0980500000000  0.0338780000000  0.2807670000000 1.0   0.04
O      2 -0.4814410000000 -0.2307080000000  0.3679310000000 1.0   0.10
O      2 -0.1663020000000 -0.5516790000000  0.3394010000000 1.0   0.09
O      2 -0.3266820000000 -0.3430420000000  0.0357750000000 1.0   0.02
O      2 -0.5338780000000 -0.5980500000000  0.2192330000000 1.0   0.04
P      3  0.2261100000000  0.2738900000000 -0.2500000000000 1.0   0.01
P      3 -0.2261100000000 -0.2738900000000  0.2500000000000 1.0   0.01
P      3  0.0000000000000 -0.0000000000000 -0.5000000000000 1.0  -0.07
P      3  0.5000000000000 -0.5000000000000 -0.0000000000000 1.0  -0.07
Fe     4  0.2589500000000 -0.3535200000000  0.3862750000000 1.0   3.81
Fe     4 -0.1464800000000  0.2410500000000  0.1137250000000 1.0   3.81
Fe     4 -0.2589500000000  0.3535200000000 -0.3862750000000 1.0   3.81
Fe     4  0.1464800000000 -0.2410500000000 -0.1137250000000 1.0   3.81
END
