TITL 4LFP-201124-095050-6750ab 0.0785 142.445748 -6.06921922E+003 7.99992 8.12052 14 (P-1) n - 1
REM
REM Run started: Tue, 24 Nov 2020 11:27:38 +0000 in /scratch/scratch/uccabz1/launch_tmp/launcher_2020-11-24-09-50-47-725215
REM CASTEP 19.11| from code version Version unavailable
REM Functional Perdew Burke Ernzerhof Relativity Koelling-Harmon Dispersion off
REM Cut-off 300.0000 eV Grid scale 1.7500 Gmax 15.5288 1/A FBSC none
REM MP grid 6 3 2 Offset 0.000 0.000 0.000 No. kpts 18 Spacing 0.07
REM Total runtime: 6278 s
REM Overall efficiency: 89.3077 %
REM
REM 4LFP.cell (a815d5d25b9f25a0a111bfe3624e67be)
REM
REM compiler GCC version 4.9.2
REM options -cpp -iprefix /scratch/UCL/applications/gcc/4.9.2/bin/../lib/gcc/x86_64-unknown-linux-gnu/4.9.2/ -mtune=corei7 -march=x86-64 -g -O2
REM COMMAND_LINE
REM seed 1330062594 1016123027 681724726 -2099460721 -1751854992 950866559 1447704437 1014218105 -1279517471 -861258389 2014306440 -735301585
REM
REM P 3|1.8|4|5|5|30:31:32(qc=5)
REM O 2|1.5|12|13|15|20:21(qc=5)
REM Li 1|1.3|8|9|10|10U:20(qc=5)
REM Fe 3|2.2|2.0|1.0|8|9|10|40:41:32(qc=5)
REM Fe d:4.0 
REM
CELL 1.54180    2.76063    5.35554   10.10019   93.49347  107.03770   87.34685
LATT -1
SFAC Li O  P  Fe 
Li     1 -0.5690880000000 -0.2578600000000  0.4293590000000 1.0  -0.06
Li     1  0.5690880000000  0.2578600000000 -0.4293590000000 1.0  -0.06
O      2  0.5524000000000 -0.2501590000000  0.0472030000000 1.0   0.01
O      2  0.2686010000000 -0.4393580000000  0.2380150000000 1.0   0.02
O      2  0.1978870000000  0.0392200000000  0.2071540000000 1.0   0.02
O      2 -0.5524000000000  0.2501590000000 -0.0472030000000 1.0   0.01
O      2 -0.2686010000000  0.4393580000000 -0.2380150000000 1.0   0.02
O      2 -0.1978870000000 -0.0392200000000 -0.2071540000000 1.0   0.02
O      2  0.0000000000000  0.0000000000000  0.5000000000000 1.0   0.20
O      2  0.0000000000000  0.5000000000000 -0.5000000000000 1.0   0.21
P      3  0.1535090000000 -0.2249150000000  0.1429090000000 1.0   0.02
P      3 -0.1535090000000  0.2249150000000 -0.1429090000000 1.0   0.02
Fe     4 -0.1631680000000  0.2534950000000  0.3494060000000 1.0   3.79
Fe     4  0.1631680000000 -0.2534950000000 -0.3494060000000 1.0   3.79
END
