TITL 4LFP-201124-093844-39d7df 0.0009 145.986082 -6.07406495E+003 8.00000 8.20156 14 (Fdd2) n - 1
REM
REM Run started: Tue, 24 Nov 2020 11:56:04 +0000 in /lustre/scratch/uccabz1/launch_tmp/launcher_2020-11-24-09-38-39-738043
REM CASTEP 20.1 from code version af48c487+ pr-geom-scf-spinfix Tue Jun 2 15:39:59 2020 +0100
REM Functional Perdew Burke Ernzerhof Relativity Koelling-Harmon Dispersion off
REM Cut-off 300.0000 eV Grid scale 1.7500 Gmax 15.5288 1/A FBSC none
REM MP grid 4 4 4 Offset 0.000 0.000 0.000 No. kpts 15 Spacing 0.07
REM Total runtime: 8492.42 s
REM Overall efficiency: 85.6 %
REM
REM 4LFP.cell (a815d5d25b9f25a0a111bfe3624e67be)
REM
REM compiler GCC version 4.9.2
REM options -cpp -iprefix /lustre/shared/ucl/apps/gcc/4.9.2/bin/../lib/gcc/x86_64-unknown-linux-gnu/4.9.2/ -mtune=corei7 -march=x86-64 -g -Og
REM COMMAND_LINE
REM seed 1803186135 1745052254 -1186412908 -44468586 -234414370 1407527315 1830347121 -529613181 1398542659 2030430707 -59687018 877660641
REM
REM P 3|1.8|4|5|5|30:31:32(qc=5)
REM O 2|1.5|12|13|15|20:21(qc=5)
REM Li 1|1.3|8|9|10|10U:20(qc=5)
REM Fe 3|2.2|2.0|1.0|8|9|10|40:41:32(qc=5)
REM Fe d:4.0 
REM
CELL 1.54180    6.27719    6.27719    7.26174  133.61510  133.61510   53.41533
LATT -1
SFAC Li O  P  Fe 
Li     1  0.2320610000000 -0.2679390000000 -0.5358790000000 1.0  -0.04
Li     1 -0.5179390000000 -0.5179390000000 -1.0358790000000 1.0  -0.04
O      2 -0.0720540000000  0.6001520000000  0.3783520000000 1.0   0.03
O      2 -0.1273770000000  0.0740900000000  0.2895240000000 1.0   0.05
O      2  0.4504070000000 -0.2218000000000  0.3783520000000 1.0   0.03
O      2  0.4169010000000  0.2154340000000  0.2895240000000 1.0   0.05
O      2 -0.4718000000000 -0.2995930000000 -0.1216480000000 1.0   0.03
O      2 -0.0345660000000 -0.3330990000000 -0.2104760000000 1.0   0.05
O      2  0.3501520000000  0.1779460000000 -0.1216480000000 1.0   0.03
O      2 -0.1759100000000  0.1226230000000 -0.2104760000000 1.0   0.05
P      3 -0.2115230000000 -0.2115230000000 -0.4230470000000 1.0   0.01
P      3  0.5384770000000  0.0384770000000  0.0769530000000 1.0   0.01
Fe     4  0.8634920000000  0.3634920000000  0.7269840000000 1.0   3.88
Fe     4  0.1134920000000  0.1134920000000  0.2269840000000 1.0   3.88
END
