TITL 4LFP-201124-081701-191f33 0.0230 147.795850 -6.06680164E+003 8.00000 8.19509 14 (P21/m) n - 1
REM
REM Run started: Tue, 24 Nov 2020 09:05:12 +0000 in /lustre/scratch/uccabz1/launch_tmp/launcher_2020-11-24-08-16-59-111723
REM CASTEP 20.1 from code version af48c487+ pr-geom-scf-spinfix Tue Jun 2 15:39:59 2020 +0100
REM Functional Perdew Burke Ernzerhof Relativity Koelling-Harmon Dispersion off
REM Cut-off 300.0000 eV Grid scale 1.7500 Gmax 15.5288 1/A FBSC none
REM MP grid 4 3 3 Offset 0.000 0.000 0.000 No. kpts 12 Spacing 0.07
REM Total runtime: 3510.21 s
REM Overall efficiency: 72.625 %
REM
REM 4LFP.cell (a815d5d25b9f25a0a111bfe3624e67be)
REM
REM compiler GCC version 4.9.2
REM options -cpp -iprefix /lustre/shared/ucl/apps/gcc/4.9.2/bin/../lib/gcc/x86_64-unknown-linux-gnu/4.9.2/ -mtune=corei7 -march=x86-64 -g -Og
REM COMMAND_LINE
REM seed -1376339894 -1018199723 1752008917 2037542952 329640424 1083589840 1292275991 -1282824315 1226379342 172381113 725439443 -1343335707
REM
REM P 3|1.8|4|5|5|30:31:32(qc=5)
REM O 2|1.5|12|13|15|20:21(qc=5)
REM Li 1|1.3|8|9|10|10U:20(qc=5)
REM Fe 3|2.2|2.0|1.0|8|9|10|40:41:32(qc=5)
REM Fe d:4.0 
REM
CELL 1.54180    5.31916    7.21838    5.24067   90.00000   90.00000  132.73498
LATT -1
SFAC Li O  P  Fe 
Li     1  0.4297160000000  0.5574730000000 -0.2500000000000 1.0  -0.03
Li     1 -0.4297160000000 -0.5574730000000  0.2500000000000 1.0  -0.03
O      2  0.1436970000000 -0.7241550000000  0.4693170000000 1.0   0.05
O      2  0.3162560000000 -0.2496070000000  0.5329370000000 1.0   0.08
O      2 -0.1436970000000  0.7241550000000 -0.0306830000000 1.0   0.05
O      2 -0.3162560000000  0.2496070000000  0.0329370000000 1.0   0.08
O      2 -0.1436970000000  0.7241550000000 -0.4693170000000 1.0   0.05
O      2 -0.3162560000000  0.2496070000000 -0.5329370000000 1.0   0.08
O      2  0.1436970000000 -0.7241550000000  0.0306830000000 1.0   0.05
O      2  0.3162560000000 -0.2496070000000 -0.0329370000000 1.0   0.08
P      3 -0.0667160000000  0.2793720000000  0.2500000000000 1.0  -0.02
P      3  0.0667160000000 -0.2793720000000 -0.2500000000000 1.0  -0.02
Fe     4 -0.2371780000000  0.0732910000000 -0.2500000000000 1.0   3.80
Fe     4  0.2371780000000 -0.0732910000000  0.2500000000000 1.0   3.80
END
