TITL 4LFP_actual-201126-231154-ef0866 -0.0064 299.963727 -1.21467049E+004 16.0000 16.2920 28 (Cc) n - 1
REM
REM Run started: Fri, 27 Nov 2020 01:26:54 +0000 in /lustre/scratch/uccabz1/launch_tmp/launcher_2020-11-26-23-11-41-374253
REM CASTEP 20.1 from code version af48c487+ pr-geom-scf-spinfix Tue Jun 2 15:39:59 2020 +0100
REM Functional Perdew Burke Ernzerhof Relativity Koelling-Harmon Dispersion off
REM Cut-off 300.0000 eV Grid scale 1.7500 Gmax 15.5288 1/A FBSC none
REM MP grid 3 3 2 Offset 0.000 0.000 0.000 No. kpts 6 Spacing 0.07
REM Total runtime: 8313.16 s
REM Overall efficiency: 77.5455 %
REM
REM 4LFP_actual.cell (cb690b6ff984803026f07b083c6867a4)
REM
REM compiler GCC version 4.9.2
REM options -cpp -iprefix /lustre/shared/ucl/apps/gcc/4.9.2/bin/../lib/gcc/x86_64-unknown-linux-gnu/4.9.2/ -mtune=corei7 -march=x86-64 -g -Og
REM COMMAND_LINE
REM seed 674458318 374215148 1675066185 -2017566799 -1486028113 2064069128 1995587245 -456205025 1545616632 -537363016 333881413 -394757954
REM
REM P 3|1.8|4|5|5|30:31:32(qc=5)
REM O 2|1.5|12|13|15|20:21(qc=5)
REM Li 1|1.3|8|9|10|10U:20(qc=5)
REM Fe 3|2.2|2.0|1.0|8|9|10|40:41:32(qc=5)
REM Fe d:4.0 
REM
CELL 1.54180    5.39389    6.80233    9.08743  100.54022   90.00000  113.35794
LATT -1
SFAC Li O  P  Fe 
Li     1 -0.1292900000000  0.2604230000000 -0.2198690000000 1.0  -0.04
Li     1  0.3897130000000  0.2604230000000  0.2801310000000 1.0  -0.04
Li     1  0.0600190000000 -0.1782740000000  0.3581340000000 1.0  -0.04
Li     1 -0.2382930000000 -0.1782740000000 -0.1418660000000 1.0  -0.04
O      2  0.0101770000000  0.0078060000000  0.1695750000000 1.0   0.04
O      2  0.4791980000000  0.0328300000000  0.1182710000000 1.0   0.05
O      2  0.1245740000000 -0.3140150000000  0.1639370000000 1.0   0.04
O      2  0.0840140000000 -0.1860400000000 -0.0860860000000 1.0   0.03
O      2 -0.0023710000000  0.0078060000000 -0.3304250000000 1.0   0.04
O      2 -0.4463690000000  0.0328300000000 -0.3817290000000 1.0   0.05
O      2 -0.4385890000000 -0.3140150000000 -0.3360630000000 1.0   0.04
O      2 -0.2700540000000 -0.1860400000000 -0.5860860000000 1.0   0.03
O      2  0.1748160000000  0.6716630000000  0.4650040000000 1.0   0.04
O      2 -0.2150120000000  0.3103280000000  0.3556890000000 1.0   0.04
O      2  0.2228270000000  0.3085710000000  0.4605680000000 1.0   0.03
O      2 -0.0740590000000  0.4450860000000  0.6392870000000 1.0   0.05
O      2  0.4968480000000  0.6716630000000 -0.0349960000000 1.0   0.04
O      2  0.5253390000000  0.3103280000000 -0.1443110000000 1.0   0.04
O      2  0.0857430000000  0.3085710000000 -0.0394320000000 1.0   0.03
O      2  0.5191450000000  0.4450860000000  0.1392870000000 1.0   0.05
P      3  0.1704570000000 -0.1180380000000  0.0833090000000 1.0   0.02
P      3 -0.2884940000000 -0.1180380000000 -0.4166910000000 1.0   0.02
P      3  0.0279840000000  0.4301600000000  0.4770030000000 1.0   0.01
P      3  0.4021760000000  0.4301600000000 -0.0229970000000 1.0   0.01
Fe     4  0.2187690000000 -0.1899050000000 -0.2911020000000 1.0   3.86
Fe     4 -0.4086740000000 -0.1899050000000  0.2088980000000 1.0   3.86
Fe     4 -0.1483930000000  0.3336920000000  0.1319400000000 1.0   3.89
Fe     4 -0.5179150000000  0.3336920000000 -0.3680600000000 1.0   3.89
END
