TITL 4LFP_actual-201127-002406-ee4a5c -0.0728 298.791457 -1.21465966E+004 -16.0000 16.1826 28 (P-1) n - 1
REM
REM Run started: Sat, 28 Nov 2020 01:27:34 +0000 in /lustre/scratch/uccabz1/launch_tmp/launcher_2020-11-27-00-23-55-101519
REM CASTEP 20.1 from code version af48c487+ pr-geom-scf-spinfix Tue Jun 2 15:39:59 2020 +0100
REM Functional Perdew Burke Ernzerhof Relativity Koelling-Harmon Dispersion off
REM Cut-off 300.0000 eV Grid scale 1.7500 Gmax 15.5288 1/A FBSC none
REM MP grid 4 3 2 Offset 0.000 0.000 0.000 No. kpts 12 Spacing 0.07
REM Total runtime: 92877 s
REM Overall efficiency: 94.7333 %
REM
REM 4LFP_actual.cell (cb690b6ff984803026f07b083c6867a4)
REM
REM compiler GCC version 4.9.2
REM options -cpp -iprefix /lustre/shared/ucl/apps/gcc/4.9.2/bin/../lib/gcc/x86_64-unknown-linux-gnu/4.9.2/ -mtune=corei7 -march=x86-64 -g -Og
REM COMMAND_LINE
REM seed -766686206 537839871 271070550 345601834 -521956439 -1122678610 1598875235 1529384780 -1211902700 -1782140099 1215401594 968755564
REM
REM P 3|1.8|4|5|5|30:31:32(qc=5)
REM O 2|1.5|12|13|15|20:21(qc=5)
REM Li 1|1.3|8|9|10|10U:20(qc=5)
REM Fe 3|2.2|2.0|1.0|8|9|10|40:41:32(qc=5)
REM Fe d:4.0 
REM
CELL 1.54180    5.06943    5.10005   12.44981   84.22814   71.00785   79.30306
LATT -1
SFAC Li O  P  Fe 
Li     1 -0.1318010000000 -0.4063830000000  0.1504720000000 1.0   0.03
Li     1  0.1318010000000  0.4063830000000 -0.1504720000000 1.0   0.03
Li     1  0.0216220000000  0.3382630000000  0.2913160000000 1.0   0.04
Li     1 -0.0216220000000 -0.3382630000000 -0.2913160000000 1.0   0.04
O      2  0.1811470000000  0.1599140000000  0.1529830000000 1.0  -0.04
O      2  0.5807020000000 -0.2091540000000  0.1094660000000 1.0  -0.05
O      2  0.0839780000000 -0.3009170000000  0.2493070000000 1.0  -0.02
O      2  0.1699050000000 -0.2490740000000  0.0440870000000 1.0  -0.04
O      2 -0.1811470000000 -0.1599140000000 -0.1529830000000 1.0  -0.04
O      2 -0.5807020000000  0.2091540000000 -0.1094660000000 1.0  -0.05
O      2 -0.0839780000000  0.3009170000000 -0.2493070000000 1.0  -0.02
O      2 -0.1699050000000  0.2490740000000 -0.0440870000000 1.0  -0.04
O      2  0.7884270000000  0.1428810000000  0.4161500000000 1.0  -0.04
O      2  0.4404130000000 -0.0621270000000  0.3475080000000 1.0  -0.05
O      2  0.2646140000000  0.3680260000000  0.4532790000000 1.0  -0.05
O      2  0.6261490000000  0.3555780000000  0.2558210000000 1.0  -0.04
O      2 -0.7884270000000 -0.1428810000000 -0.4161500000000 1.0  -0.04
O      2 -0.4404130000000  0.0621270000000 -0.3475080000000 1.0  -0.05
O      2 -0.2646140000000 -0.3680260000000 -0.4532790000000 1.0  -0.05
O      2 -0.6261490000000 -0.3555780000000 -0.2558210000000 1.0  -0.04
P      3  0.2553120000000 -0.1502840000000  0.1414560000000 1.0  -0.00
P      3 -0.2553120000000  0.1502840000000 -0.1414560000000 1.0  -0.00
P      3  0.5267330000000  0.1929370000000  0.3723210000000 1.0  -0.02
P      3 -0.5267330000000 -0.1929370000000 -0.3723210000000 1.0  -0.02
Fe     4  0.3947030000000 -0.2190560000000 -0.1153340000000 1.0  -3.86
Fe     4 -0.3947030000000  0.2190560000000  0.1153340000000 1.0  -3.86
Fe     4  0.0858660000000 -0.2243620000000  0.4204320000000 1.0  -3.85
Fe     4 -0.0858660000000  0.2243620000000 -0.4204320000000 1.0  -3.85
END
