TITL 4LFP_actual-201126-225051-e3e52e 0.0047 279.741168 -1.21434287E+004 16.0000 16.2522 28 (P21212) n - 1
REM
REM Run started: Thu, 26 Nov 2020 23:16:27 +0000 in /lustre/scratch/uccabz1/launch_tmp/launcher_2020-11-26-22-50-47-740926
REM CASTEP 20.1 from code version af48c487+ pr-geom-scf-spinfix Tue Jun 2 15:39:59 2020 +0100
REM Functional Perdew Burke Ernzerhof Relativity Koelling-Harmon Dispersion off
REM Cut-off 300.0000 eV Grid scale 1.7500 Gmax 15.5288 1/A FBSC none
REM MP grid 5 2 2 Offset 0.000 0.000 0.000 No. kpts 3 Spacing 0.07
REM Total runtime: 1744.33 s
REM Overall efficiency: 72.1429 %
REM
REM 4LFP_actual.cell (cb690b6ff984803026f07b083c6867a4)
REM
REM compiler GCC version 4.9.2
REM options -cpp -iprefix /lustre/shared/ucl/apps/gcc/4.9.2/bin/../lib/gcc/x86_64-unknown-linux-gnu/4.9.2/ -mtune=corei7 -march=x86-64 -g -Og
REM COMMAND_LINE
REM seed 184235551 -2100943100 -1784557164 -60741136 -807697196 -390947225 -811389348 979349619 -784978741 153772391 -1953593158 -1547892698
REM
REM P 3|1.8|4|5|5|30:31:32(qc=5)
REM O 2|1.5|12|13|15|20:21(qc=5)
REM Li 1|1.3|8|9|10|10U:20(qc=5)
REM Fe 3|2.2|2.0|1.0|8|9|10|40:41:32(qc=5)
REM Fe d:4.0 
REM
CELL 1.54180    3.55489    9.31019    8.45224   90.00000   90.00000   90.00000
LATT -1
SFAC Li O  P  Fe 
Li     1 -0.0356060000000 -0.3629640000000  0.4122410000000 1.0  -0.03
Li     1 -0.0356060000000  0.3629640000000 -0.4122410000000 1.0  -0.03
Li     1  0.0356060000000  0.1370360000000  0.0877590000000 1.0  -0.03
Li     1  0.0356060000000 -0.1370360000000 -0.0877590000000 1.0  -0.03
O      2 -0.3828510000000  0.1855020000000 -0.3730560000000 1.0   0.04
O      2  0.0029210000000  0.1815740000000 -0.1324630000000 1.0   0.04
O      2 -0.4207100000000 -0.0313120000000 -0.1573790000000 1.0   0.04
O      2  0.0536760000000 -0.0283620000000 -0.3563990000000 1.0   0.05
O      2 -0.3828510000000 -0.1855020000000  0.3730560000000 1.0   0.04
O      2  0.0029210000000 -0.1815740000000  0.1324630000000 1.0   0.04
O      2 -0.4207100000000  0.0313120000000  0.1573790000000 1.0   0.04
O      2  0.0536760000000  0.0283620000000  0.3563990000000 1.0   0.05
O      2  0.3828510000000 -0.3144980000000 -0.1269440000000 1.0   0.04
O      2 -0.0029210000000 -0.3184260000000 -0.3675370000000 1.0   0.04
O      2  0.4207100000000 -0.5313120000000 -0.3426210000000 1.0   0.04
O      2 -0.0536760000000 -0.5283620000000 -0.1436010000000 1.0   0.05
O      2  0.3828510000000  0.3144980000000  0.1269440000000 1.0   0.04
O      2 -0.0029210000000  0.3184260000000  0.3675370000000 1.0   0.04
O      2  0.4207100000000  0.5313120000000  0.3426210000000 1.0   0.04
O      2 -0.0536760000000  0.5283620000000  0.1436010000000 1.0   0.05
P      3 -0.1841390000000  0.0772640000000 -0.2565280000000 1.0   0.00
P      3 -0.1841390000000 -0.0772640000000  0.2565280000000 1.0   0.00
P      3  0.1841390000000 -0.4227360000000 -0.2434720000000 1.0   0.00
P      3  0.1841390000000  0.4227360000000  0.2434720000000 1.0   0.00
Fe     4  0.4735640000000 -0.3341650000000  0.1187090000000 1.0   3.86
Fe     4  0.4735640000000  0.3341650000000 -0.1187090000000 1.0   3.86
Fe     4 -0.4735640000000  0.1658350000000  0.3812910000000 1.0   3.86
Fe     4 -0.4735640000000 -0.1658350000000 -0.3812910000000 1.0   3.86
END
