TITL 4LFP_actual-201126-235505-e7823c -0.0344 305.412044 -1.21466926E+004 16.0000 16.2605 28 (I4) n - 1
REM
REM Run started: Fri, 27 Nov 2020 03:35:29 +0000 in /lustre/scratch/uccabz1/launch_tmp/launcher_2020-11-26-23-54-45-746166
REM CASTEP 20.1 from code version af48c487+ pr-geom-scf-spinfix Tue Jun 2 15:39:59 2020 +0100
REM Functional Perdew Burke Ernzerhof Relativity Koelling-Harmon Dispersion off
REM Cut-off 300.0000 eV Grid scale 1.7500 Gmax 15.5288 1/A FBSC none
REM MP grid 4 2 2 Offset 0.000 0.000 0.000 No. kpts 8 Spacing 0.07
REM Total runtime: 13395.1 s
REM Overall efficiency: 96.5556 %
REM
REM 4LFP_actual.cell (cb690b6ff984803026f07b083c6867a4)
REM
REM compiler GCC version 4.9.2
REM options -cpp -iprefix /lustre/shared/ucl/apps/gcc/4.9.2/bin/../lib/gcc/x86_64-unknown-linux-gnu/4.9.2/ -mtune=corei7 -march=x86-64 -g -Og
REM COMMAND_LINE
REM seed 1487580851 -1578208360 1125168422 -310375784 -445693465 -1747513153 -941785759 -1764874616 735020310 2123432906 144667188 -1992650799
REM
REM P 3|1.8|4|5|5|30:31:32(qc=5)
REM O 2|1.5|12|13|15|20:21(qc=5)
REM Li 1|1.3|8|9|10|10U:20(qc=5)
REM Fe 3|2.2|2.0|1.0|8|9|10|40:41:32(qc=5)
REM Fe d:4.0 
REM
CELL 1.54180    5.16203    8.11337    8.11337   84.19174   71.45078   71.45078
LATT -1
SFAC Li O  P  Fe 
Li     1  0.3207960000000 -0.4103980000000  0.3602440000000 1.0  -0.02
Li     1  0.2706410000000  0.4103980000000 -0.3602440000000 1.0  -0.02
Li     1 -0.3189610000000 -0.3602440000000 -0.4103980000000 1.0  -0.02
Li     1 -0.0896020000000  0.3602440000000  0.4103980000000 1.0  -0.02
O      2  0.1449950000000 -0.1826370000000  0.2107100000000 1.0   0.04
O      2 -0.0596000000000 -0.4201130000000  0.3447550000000 1.0   0.01
O      2 -0.3178160000000 -0.1180410000000  0.4651540000000 1.0   0.05
O      2 -0.3433190000000 -0.1854290000000  0.1809520000000 1.0   0.05
O      2  0.1730690000000  0.1826370000000 -0.2107100000000 1.0   0.04
O      2 -0.1349580000000  0.4201130000000 -0.3447550000000 1.0   0.01
O      2  0.0292980000000  0.1180410000000 -0.4651540000000 1.0   0.05
O      2 -0.3477960000000  0.1854290000000 -0.1809520000000 1.0   0.05
O      2  0.3557060000000 -0.2107100000000 -0.1826370000000 1.0   0.04
O      2  0.2851550000000 -0.3447550000000 -0.4201130000000 1.0   0.01
O      2  0.1473390000000 -0.4651540000000 -0.1180410000000 1.0   0.05
O      2 -0.1623670000000 -0.1809520000000 -0.1854290000000 1.0   0.05
O      2 -0.0376410000000  0.2107100000000  0.1826370000000 1.0   0.04
O      2 -0.4797140000000  0.3447550000000  0.4201130000000 1.0   0.01
O      2 -0.4358570000000  0.4651540000000  0.1180410000000 1.0   0.05
O      2 -0.5287480000000  0.1809520000000  0.1854290000000 1.0   0.05
P      3 -0.1425980000000 -0.2257710000000  0.2953940000000 1.0   0.02
P      3 -0.0729750000000  0.2257710000000 -0.2953940000000 1.0   0.02
P      3  0.1527960000000 -0.2953940000000 -0.2257710000000 1.0   0.02
P      3 -0.3683690000000  0.2953940000000  0.2257710000000 1.0   0.02
Fe     4  0.2608760000000  0.3067490000000 -0.0035570000000 1.0   3.86
Fe     4 -0.4359320000000 -0.3067490000000  0.0035570000000 1.0   3.86
Fe     4  0.2573190000000  0.0035570000000  0.3067490000000 1.0   3.86
Fe     4 -0.4323750000000 -0.0035570000000 -0.3067490000000 1.0   3.86
END
