TITL 4LFP_actual-201126-232105-fca87d 0.0259 315.518856 -1.21468148E+004 16.0000 16.2985 28 (P21) n - 1
REM
REM Run started: Fri, 27 Nov 2020 04:05:20 +0000 in /lustre/scratch/uccabz1/launch_tmp/launcher_2020-11-26-23-20-55-170904
REM CASTEP 20.1 from code version af48c487+ pr-geom-scf-spinfix Tue Jun 2 15:39:59 2020 +0100
REM Functional Perdew Burke Ernzerhof Relativity Koelling-Harmon Dispersion off
REM Cut-off 300.0000 eV Grid scale 1.7500 Gmax 15.5288 1/A FBSC none
REM MP grid 3 3 2 Offset 0.000 0.000 0.000 No. kpts 6 Spacing 0.07
REM Total runtime: 18501.2 s
REM Overall efficiency: 97.1111 %
REM
REM 4LFP_actual.cell (cb690b6ff984803026f07b083c6867a4)
REM
REM compiler GCC version 4.9.2
REM options -cpp -iprefix /lustre/shared/ucl/apps/gcc/4.9.2/bin/../lib/gcc/x86_64-unknown-linux-gnu/4.9.2/ -mtune=corei7 -march=x86-64 -g -Og
REM COMMAND_LINE
REM seed -572403736 -1604750420 298950634 -561691345 885270081 531034267 816463571 -1409428876 -1923512598 1937955679 2021582119 -1795899741
REM
REM P 3|1.8|4|5|5|30:31:32(qc=5)
REM O 2|1.5|12|13|15|20:21(qc=5)
REM Li 1|1.3|8|9|10|10U:20(qc=5)
REM Fe 3|2.2|2.0|1.0|8|9|10|40:41:32(qc=5)
REM Fe d:4.0 
REM
CELL 1.54180    5.86457    7.32901    7.87972  111.31317   90.00000   90.00000
LATT -1
SFAC Li O  P  Fe 
Li     1  0.0660970000000 -0.0189100000000  0.4585210000000 1.0  -0.03
Li     1 -0.4339030000000  0.0189100000000 -0.4585210000000 1.0  -0.03
Li     1  0.2495720000000 -0.0130380000000 -0.1322000000000 1.0  -0.03
Li     1 -0.2504280000000  0.0130380000000  0.1322000000000 1.0  -0.03
O      2  0.2494940000000 -0.4436890000000  0.0471430000000 1.0   0.06
O      2  0.3196840000000 -0.0729320000000  0.1340340000000 1.0   0.03
O      2  0.0381580000000 -0.2575590000000 -0.1072730000000 1.0   0.06
O      2 -0.0571310000000 -0.1894710000000  0.2258090000000 1.0   0.03
O      2 -0.2505060000000  0.4436890000000 -0.0471430000000 1.0   0.06
O      2 -0.1803160000000  0.0729320000000 -0.1340340000000 1.0   0.03
O      2 -0.4618420000000  0.2575590000000  0.1072730000000 1.0   0.06
O      2 -0.5571310000000  0.1894710000000 -0.2258090000000 1.0   0.03
O      2  0.4802810000000 -0.2504510000000 -0.5884310000000 1.0   0.03
O      2  0.2903900000000 -0.5129630000000 -0.4760570000000 1.0   0.04
O      2  0.4799580000000 -0.2160630000000 -0.2563580000000 1.0   0.05
O      2  0.1204980000000 -0.1702510000000 -0.4072210000000 1.0   0.03
O      2 -0.0197190000000  0.2504510000000  0.5884310000000 1.0   0.03
O      2 -0.2096100000000  0.5129630000000  0.4760570000000 1.0   0.04
O      2 -0.0200420000000  0.2160630000000  0.2563580000000 1.0   0.05
O      2 -0.3795020000000  0.1702510000000  0.4072210000000 1.0   0.03
P      3  0.1422350000000 -0.2403910000000  0.0804520000000 1.0   0.01
P      3 -0.3577650000000  0.2403910000000 -0.0804520000000 1.0   0.01
P      3  0.3429490000000 -0.2947400000000 -0.4382050000000 1.0   0.01
P      3 -0.1570510000000  0.2947400000000  0.4382050000000 1.0   0.01
Fe     4  0.2214690000000 -0.5757550000000 -0.2261390000000 1.0   3.86
Fe     4 -0.2785310000000  0.5757550000000  0.2261390000000 1.0   3.86
Fe     4 -0.1810690000000 -0.2338010000000 -0.2926660000000 1.0   3.84
Fe     4  0.3189310000000  0.2338010000000  0.2926660000000 1.0   3.84
END
