TITL 4LFP-201124-074043-678c8e -0.0012 139.422728 -6.06585594E+003 8.00248 8.22115 14 (Pmn21) n - 1
REM
REM Run started: Tue, 24 Nov 2020 07:52:24 +0000 in /lustre/scratch/uccabz1/launch_tmp/launcher_2020-11-24-07-40-38-425266
REM CASTEP 20.1 from code version af48c487+ pr-geom-scf-spinfix Tue Jun 2 15:39:59 2020 +0100
REM Functional Perdew Burke Ernzerhof Relativity Koelling-Harmon Dispersion off
REM Cut-off 300.0000 eV Grid scale 1.7500 Gmax 15.5288 1/A FBSC none
REM MP grid 4 3 3 Offset 0.000 0.000 0.000 No. kpts 8 Spacing 0.07
REM Total runtime: 768.84 s
REM Overall efficiency: 74.4 %
REM
REM 4LFP.cell (a815d5d25b9f25a0a111bfe3624e67be)
REM
REM compiler GCC version 4.9.2
REM options -cpp -iprefix /lustre/shared/ucl/apps/gcc/4.9.2/bin/../lib/gcc/x86_64-unknown-linux-gnu/4.9.2/ -mtune=corei7 -march=x86-64 -g -Og
REM COMMAND_LINE
REM seed -1590110629 -815494101 -1665696279 1710740239 -658606083 387023348 1959890607 772766525 -1647779838 598460870 499690643 -236764343
REM
REM P 3|1.8|4|5|5|30:31:32(qc=5)
REM O 2|1.5|12|13|15|20:21(qc=5)
REM Li 1|1.3|8|9|10|10U:20(qc=5)
REM Fe 3|2.2|2.0|1.0|8|9|10|40:41:32(qc=5)
REM Fe d:4.0 
REM
CELL 1.54180    4.56666    5.03932    6.05848   90.00000   90.00000   90.00000
LATT -1
SFAC Li O  P  Fe 
Li     1 -0.1102090000000 -0.0000000000000  0.5156370000000 1.0  -0.04
Li     1  0.3897910000000 -0.5000000000000 -0.5156370000000 1.0  -0.04
O      2  0.1184770000000 -0.2743060000000 -0.3482630000000 1.0   0.04
O      2 -0.3159820000000 -0.2721630000000 -0.1498750000000 1.0   0.07
O      2  0.6184770000000 -0.2256940000000  0.3482630000000 1.0   0.04
O      2  0.1840180000000 -0.2278370000000  0.1498750000000 1.0   0.07
O      2  0.6184770000000  0.2256940000000  0.3482630000000 1.0   0.04
O      2  0.1840180000000  0.2278370000000  0.1498750000000 1.0   0.07
O      2  0.1184770000000  0.2743060000000 -0.3482630000000 1.0   0.04
O      2 -0.3159820000000  0.2721630000000 -0.1498750000000 1.0   0.07
P      3  0.4038900000000 -0.0000000000000  0.2435980000000 1.0  -0.00
P      3 -0.0961100000000  0.5000000000000 -0.2435980000000 1.0  -0.00
Fe     4 -0.1557950000000  0.5000000000000  0.1537190000000 1.0   3.81
Fe     4  0.3442050000000 -0.0000000000000 -0.1537190000000 1.0   3.81
END
