TITL 4LFP-201124-095007-9da664 0.0262 145.663546 -6.07334630E+003 8.00000 8.14835 14 (P21) n - 1
REM
REM Run started: Tue, 24 Nov 2020 10:22:58 +0000 in /lustre/scratch/uccabz1/launch_tmp/launcher_2020-11-24-09-49-59-606604
REM CASTEP 20.1 from code version af48c487+ pr-geom-scf-spinfix Tue Jun 2 15:39:59 2020 +0100
REM Functional Perdew Burke Ernzerhof Relativity Koelling-Harmon Dispersion off
REM Cut-off 300.0000 eV Grid scale 1.7500 Gmax 15.5288 1/A FBSC none
REM MP grid 3 4 3 Offset 0.000 0.000 0.000 No. kpts 12 Spacing 0.07
REM Total runtime: 2154.73 s
REM Overall efficiency: 74 %
REM
REM 4LFP.cell (a815d5d25b9f25a0a111bfe3624e67be)
REM
REM compiler GCC version 4.9.2
REM options -cpp -iprefix /lustre/shared/ucl/apps/gcc/4.9.2/bin/../lib/gcc/x86_64-unknown-linux-gnu/4.9.2/ -mtune=corei7 -march=x86-64 -g -Og
REM COMMAND_LINE
REM seed 455791465 -1988050937 -60190229 361125498 484522102 1145605938 -990867499 1455410006 -527324624 -968994012 422316626 -1342044734
REM
REM P 3|1.8|4|5|5|30:31:32(qc=5)
REM O 2|1.5|12|13|15|20:21(qc=5)
REM Li 1|1.3|8|9|10|10U:20(qc=5)
REM Fe 3|2.2|2.0|1.0|8|9|10|40:41:32(qc=5)
REM Fe d:4.0 
REM
CELL 1.54180    5.40135    4.96522    6.49763  123.29022   90.00000   90.00000
LATT -1
SFAC Li O  P  Fe 
Li     1  0.2155480000000 -0.3387280000000 -0.0101700000000 1.0  -0.02
Li     1 -0.2844520000000  0.3387280000000  0.0101700000000 1.0  -0.02
O      2  0.1524930000000  0.1463340000000  0.0873900000000 1.0   0.02
O      2  0.2201760000000 -0.3289000000000 -0.3485700000000 1.0   0.05
O      2 -0.0567490000000  0.1415430000000 -0.2732210000000 1.0   0.04
O      2  0.3971030000000  0.2213300000000 -0.2093500000000 1.0   0.04
O      2 -0.3475070000000 -0.1463340000000 -0.0873900000000 1.0   0.02
O      2 -0.2798240000000  0.3289000000000  0.3485700000000 1.0   0.05
O      2 -0.5567490000000 -0.1415430000000  0.2732210000000 1.0   0.04
O      2 -0.1028970000000 -0.2213300000000  0.2093500000000 1.0   0.04
P      3  0.1735100000000  0.0415360000000 -0.1805440000000 1.0   0.01
P      3 -0.3264900000000 -0.0415360000000  0.1805440000000 1.0   0.01
Fe     4 -0.3840020000000 -0.2076600000000 -0.4395960000000 1.0   3.86
Fe     4  0.1159980000000  0.2076600000000  0.4395960000000 1.0   3.86
END
