TITL 4LFP-201124-105123-3cfbb6 -0.0334 152.621524 -6.07235363E+003 8.00000 8.12160 14 (C2) n - 1
REM
REM Run started: Tue, 24 Nov 2020 12:03:34 +0000 in /scratch/scratch/uccabz1/launch_tmp/launcher_2020-11-24-10-51-19-993201
REM CASTEP 19.11| from code version Version unavailable
REM Functional Perdew Burke Ernzerhof Relativity Koelling-Harmon Dispersion off
REM Cut-off 300.0000 eV Grid scale 1.7500 Gmax 15.5288 1/A FBSC none
REM MP grid 3 3 3 Offset 0.000 0.000 0.000 No. kpts 10 Spacing 0.07
REM Total runtime: 4700.14 s
REM Overall efficiency: 64.25 %
REM
REM 4LFP.cell (a815d5d25b9f25a0a111bfe3624e67be)
REM
REM compiler GCC version 4.9.2
REM options -cpp -iprefix /scratch/UCL/applications/gcc/4.9.2/bin/../lib/gcc/x86_64-unknown-linux-gnu/4.9.2/ -mtune=corei7 -march=x86-64 -g -O2
REM COMMAND_LINE
REM seed 1760427945 -158464183 1728381746 2061061329 -765084605 -2108115690 -702083495 1727049785 -1109108020 1215842264 -77541505 -908428264
REM
REM P 3|1.8|4|5|5|30:31:32(qc=5)
REM O 2|1.5|12|13|15|20:21(qc=5)
REM Li 1|1.3|8|9|10|10U:20(qc=5)
REM Fe 3|2.2|2.0|1.0|8|9|10|40:41:32(qc=5)
REM Fe d:4.0 
REM
CELL 1.54180    5.98127    5.98127    5.15214   99.71289   99.71289  118.66816
LATT -1
SFAC Li O  P  Fe 
Li     1  0.4382200000000  0.0159250000000 -0.2394450000000 1.0  -0.03
Li     1 -0.0159250000000 -0.4382200000000  0.2394450000000 1.0  -0.03
O      2  0.3216470000000  0.2105670000000  0.0182560000000 1.0   0.02
O      2  0.3284290000000 -0.1050700000000  0.3011830000000 1.0   0.02
O      2  0.1751020000000  0.2278990000000  0.4511740000000 1.0   0.04
O      2 -0.2105670000000 -0.3216470000000 -0.0182560000000 1.0   0.02
O      2  0.1050700000000 -0.3284290000000 -0.3011830000000 1.0   0.02
O      2 -0.2278990000000 -0.1751020000000 -0.4511740000000 1.0   0.04
O      2 -0.2030060000000  0.2030060000000  0.0000000000000 1.0   0.18
O      2 -0.3532640000000  0.3532640000000  0.5000000000000 1.0   0.01
P      3  0.3439470000000  0.1608890000000  0.2992390000000 1.0   0.01
P      3 -0.1608890000000 -0.3439470000000 -0.2992390000000 1.0   0.01
Fe     4  0.0451600000000  0.2808010000000 -0.2138030000000 1.0   3.85
Fe     4 -0.2808010000000 -0.0451600000000  0.2138030000000 1.0   3.85
END
