TITL 4LFP_actual-201127-012002-fba46d -0.0248 321.997440 -1.21451479E+004 16.0000 16.3187 28 (Cm) n - 1
REM
REM Run started: Fri, 27 Nov 2020 08:23:14 +0000 in /lustre/scratch/uccabz1/launch_tmp/launcher_2020-11-27-01-19-48-734732
REM CASTEP 20.1 from code version af48c487+ pr-geom-scf-spinfix Tue Jun 2 15:39:59 2020 +0100
REM Functional Perdew Burke Ernzerhof Relativity Koelling-Harmon Dispersion off
REM Cut-off 300.0000 eV Grid scale 1.7500 Gmax 15.5288 1/A FBSC none
REM MP grid 3 2 2 Offset 0.000 0.000 0.000 No. kpts 5 Spacing 0.07
REM Total runtime: 27077.4 s
REM Overall efficiency: 64.5 %
REM
REM 4LFP_actual.cell (cb690b6ff984803026f07b083c6867a4)
REM
REM compiler GCC version 4.9.2
REM options -cpp -iprefix /lustre/shared/ucl/apps/gcc/4.9.2/bin/../lib/gcc/x86_64-unknown-linux-gnu/4.9.2/ -mtune=corei7 -march=x86-64 -g -Og
REM COMMAND_LINE
REM seed -1809410544 819400808 -1499321895 101851503 -1704140138 919519310 -521514803 868143384 672983097 -1313707773 662990420 817624986
REM
REM P 3|1.8|4|5|5|30:31:32(qc=5)
REM O 2|1.5|12|13|15|20:21(qc=5)
REM Li 1|1.3|8|9|10|10U:20(qc=5)
REM Fe 3|2.2|2.0|1.0|8|9|10|40:41:32(qc=5)
REM Fe d:4.0 
REM
CELL 1.54180    5.16679    8.12275    8.12275   81.75359  103.04262  103.04262
LATT -1
SFAC Li O  P  Fe 
Li     1 -0.2187890000000  0.4114090000000  0.0917010000000 1.0  -0.04
Li     1 -0.2187890000000  0.0917010000000  0.4114090000000 1.0  -0.04
Li     1  0.1654450000000 -0.1860700000000  0.1412290000000 1.0  -0.03
Li     1  0.1654450000000  0.1412290000000 -0.1860700000000 1.0  -0.03
O      2 -0.4236520000000 -0.1557980000000  0.1687090000000 1.0   0.02
O      2 -0.1733440000000 -0.3314200000000  0.4258080000000 1.0   0.03
O      2 -0.6756020000000 -0.3585630000000  0.3751200000000 1.0   0.05
O      2 -0.4697500000000 -0.4751600000000  0.1726290000000 1.0   0.00
O      2 -0.4236520000000  0.1687090000000 -0.1557980000000 1.0   0.02
O      2 -0.1733440000000  0.4258080000000 -0.3314200000000 1.0   0.03
O      2 -0.6756020000000  0.3751200000000 -0.3585630000000 1.0   0.05
O      2 -0.4697500000000  0.1726290000000 -0.4751600000000 1.0   0.00
O      2  0.0612560000000 -0.4068930000000  0.0178930000000 1.0   0.01
O      2  0.2343960000000 -0.6681130000000 -0.0291290000000 1.0   0.03
O      2  0.4642860000000 -0.3664400000000 -0.1324530000000 1.0   0.03
O      2  0.0612560000000  0.0178930000000 -0.4068930000000 1.0   0.01
O      2  0.2343960000000 -0.0291290000000 -0.6681130000000 1.0   0.03
O      2  0.4642860000000 -0.1324530000000 -0.3664400000000 1.0   0.03
O      2 -0.0820510000000  0.2744730000000  0.2744730000000 1.0   0.14
O      2  0.0301540000000 -0.0199660000000 -0.0199660000000 1.0   0.19
P      3 -0.4286330000000 -0.3197190000000  0.2879640000000 1.0   0.01
P      3 -0.4286330000000  0.2879640000000 -0.3197190000000 1.0   0.01
P      3  0.2950020000000 -0.4789790000000 -0.0089510000000 1.0   0.01
P      3  0.2950020000000 -0.0089510000000 -0.4789790000000 1.0   0.01
Fe     4  0.5962550000000 -0.3631570000000 -0.3631570000000 1.0   3.86
Fe     4  0.0184600000000  0.4388230000000  0.4388230000000 1.0   3.87
Fe     4 -0.3460560000000 -0.0977850000000 -0.0977850000000 1.0   3.84
Fe     4  0.0718900000000  0.1457840000000  0.1457840000000 1.0   3.86
END
