TITL 4LFP_actual-201126-162315-0830c1 0.0840 308.405941 -1.21473236E+004 16.0000 16.2271 28 (Cc) n - 1
REM
REM Run started: Thu, 26 Nov 2020 20:58:18 +0000 in /lustre/scratch/uccabz1/launch_tmp/launcher_2020-11-26-20-02-02-700094
REM CASTEP 20.1 from code version af48c487+ pr-geom-scf-spinfix Tue Jun 2 15:39:59 2020 +0100
REM Functional Perdew Burke Ernzerhof Relativity Koelling-Harmon Dispersion off
REM Cut-off 300.0000 eV Grid scale 1.7500 Gmax 15.5288 1/A FBSC none
REM MP grid 3 3 3 Offset 0.000 0.000 0.000 No. kpts 10 Spacing 0.07
REM Total runtime: 17746.5 s
REM Overall efficiency: 77 %
REM
REM
REM
REM compiler GCC version 4.9.2
REM options -cpp -iprefix /scratch/UCL/applications/gcc/4.9.2/bin/../lib/gcc/x86_64-unknown-linux-gnu/4.9.2/ -mtune=corei7 -march=x86-64 -g -O2
REM COMMAND_LINE
REM seed -1715504152 -790301233 -313763282 228626810 99873652 -708531710 -384616947 2076844427 2017986869 -1761047223 -1812338539 -783664363
REM
REM P 3|1.8|4|5|5|30:31:32(qc=5)
REM O 2|1.5|12|13|15|20:21(qc=5)
REM Li 1|1.3|8|9|10|10U:20(qc=5)
REM Fe 3|2.2|2.0|1.0|8|9|10|40:41:32(qc=5)
REM Fe d:4.0 
REM
CELL 1.54180    6.28508    7.33889    8.12281  114.00725  109.53954   96.66366
LATT -1
SFAC Li O  P  Fe 
Li     1 -0.0480160000000 -0.4656070000000 -0.4729980000000 1.0  -0.04
Li     1  0.4249820000000 -0.4926090000000  0.4729980000000 1.0  -0.04
Li     1  0.3254100000000  0.2164400000000 -0.0092450000000 1.0  -0.03
Li     1  0.3346550000000 -0.2743150000000  0.0092450000000 1.0  -0.03
O      2 -0.2621690000000 -0.5563930000000  0.1826620000000 1.0   0.05
O      2 -0.2848060000000 -0.3246220000000  0.5015970000000 1.0   0.02
O      2 -0.3527760000000 -0.2196550000000  0.2191350000000 1.0   0.03
O      2 -0.6500870000000 -0.5164470000000  0.1942130000000 1.0   0.03
O      2  0.5551690000000 -0.2390550000000 -0.1826620000000 1.0   0.05
O      2  0.2135970000000 -0.3262190000000 -0.5015970000000 1.0   0.02
O      2  0.4280900000000  0.0612110000000 -0.2191350000000 1.0   0.03
O      2  0.1556990000000 -0.2106610000000 -0.1942130000000 1.0   0.03
O      2 -0.1320720000000  0.4522470000000 -0.1358190000000 1.0   0.05
O      2  0.2552800000000  0.4337380000000 -0.1694860000000 1.0   0.04
O      2 -0.0201000000000  0.1153740000000 -0.2341220000000 1.0   0.03
O      2 -0.1331490000000  0.2779030000000 -0.4725160000000 1.0   0.03
O      2  0.0037470000000  0.0880660000000  0.1358190000000 1.0   0.05
O      2  0.4247660000000  0.1032250000000  0.1694860000000 1.0   0.04
O      2  0.2140220000000 -0.1505040000000  0.2341220000000 1.0   0.03
O      2  0.3393670000000  0.2504180000000  0.4725160000000 1.0   0.03
P      3 -0.3860440000000 -0.3926590000000  0.2766250000000 1.0   0.02
P      3  0.3373310000000 -0.1692840000000 -0.2766250000000 1.0   0.02
P      3 -0.0099260000000  0.3107630000000 -0.2590290000000 1.0   0.02
P      3  0.2491030000000  0.0697930000000  0.2590290000000 1.0   0.02
Fe     4 -0.2492260000000  0.0697440000000  0.2352190000000 1.0   3.88
Fe     4  0.5155550000000  0.3345240000000 -0.2352190000000 1.0   3.88
Fe     4  0.0438250000000 -0.4278480000000  0.1875000000000 1.0   3.87
Fe     4 -0.1436750000000 -0.1153480000000 -0.1875000000000 1.0   3.87
END
