TITL 4LFP_actual-201126-222430-a2a163 -0.0061 303.730928 -1.21467648E+004 16.0000 16.1769 28 (Pcc2) n - 1
REM
REM Run started: Thu, 26 Nov 2020 23:11:10 +0000 in /lustre/scratch/uccabz1/launch_tmp/launcher_2020-11-26-22-24-27-584928
REM CASTEP 20.1 from code version af48c487+ pr-geom-scf-spinfix Tue Jun 2 15:39:59 2020 +0100
REM Functional Perdew Burke Ernzerhof Relativity Koelling-Harmon Dispersion off
REM Cut-off 300.0000 eV Grid scale 1.7500 Gmax 15.5288 1/A FBSC none
REM MP grid 3 3 2 Offset 0.000 0.000 0.000 No. kpts 4 Spacing 0.07
REM Total runtime: 3157.47 s
REM Overall efficiency: 74.75 %
REM
REM 4LFP_actual.cell (cb690b6ff984803026f07b083c6867a4)
REM
REM compiler GCC version 4.9.2
REM options -cpp -iprefix /lustre/shared/ucl/apps/gcc/4.9.2/bin/../lib/gcc/x86_64-unknown-linux-gnu/4.9.2/ -mtune=corei7 -march=x86-64 -g -Og
REM COMMAND_LINE
REM seed -438168764 830195739 64077096 511918393 1475587851 1034774934 -603625803 1780872496 -683539282 -1391290515 -1935230281 -397577912
REM
REM P 3|1.8|4|5|5|30:31:32(qc=5)
REM O 2|1.5|12|13|15|20:21(qc=5)
REM Li 1|1.3|8|9|10|10U:20(qc=5)
REM Fe 3|2.2|2.0|1.0|8|9|10|40:41:32(qc=5)
REM Fe d:4.0 
REM
CELL 1.54180    5.86370    6.31221    8.20609   90.00000   90.00000   90.00000
LATT -1
SFAC Li O  P  Fe 
Li     1  0.2172060000000  0.1733090000000 -0.4760450000000 1.0  -0.05
Li     1 -0.2172060000000 -0.1733090000000 -0.4760450000000 1.0  -0.05
Li     1 -0.2172060000000  0.1733090000000  0.0239550000000 1.0  -0.05
Li     1  0.2172060000000 -0.1733090000000  0.0239550000000 1.0  -0.05
O      2 -0.2315550000000  0.4033780000000 -0.1536030000000 1.0   0.04
O      2 -0.2502120000000  0.0224770000000 -0.1777080000000 1.0   0.03
O      2 -0.5112910000000  0.2553920000000 -0.3622960000000 1.0   0.03
O      2 -0.0909930000000  0.2311540000000 -0.4196160000000 1.0   0.04
O      2  0.2315550000000 -0.4033780000000 -0.1536030000000 1.0   0.04
O      2  0.2502120000000 -0.0224770000000 -0.1777080000000 1.0   0.03
O      2  0.5112910000000 -0.2553920000000 -0.3622960000000 1.0   0.03
O      2  0.0909930000000 -0.2311540000000 -0.4196160000000 1.0   0.04
O      2  0.2315550000000  0.4033780000000  0.3463970000000 1.0   0.04
O      2  0.2502120000000  0.0224770000000  0.3222920000000 1.0   0.03
O      2  0.5112910000000  0.2553920000000  0.1377040000000 1.0   0.03
O      2  0.0909930000000  0.2311540000000  0.0803840000000 1.0   0.04
O      2 -0.2315550000000 -0.4033780000000  0.3463970000000 1.0   0.04
O      2 -0.2502120000000 -0.0224770000000  0.3222920000000 1.0   0.03
O      2 -0.5112910000000 -0.2553920000000  0.1377040000000 1.0   0.03
O      2 -0.0909930000000 -0.2311540000000  0.0803840000000 1.0   0.04
P      3 -0.2732290000000  0.2261180000000 -0.2833570000000 1.0   0.01
P      3  0.2732290000000 -0.2261180000000 -0.2833570000000 1.0   0.01
P      3  0.2732290000000  0.2261180000000  0.2166430000000 1.0   0.01
P      3 -0.2732290000000 -0.2261180000000  0.2166430000000 1.0   0.01
Fe     4 -0.2654910000000  0.2922050000000  0.3568360000000 1.0   3.89
Fe     4  0.2654910000000 -0.2922050000000  0.3568360000000 1.0   3.89
Fe     4  0.2654910000000  0.2922050000000 -0.1431640000000 1.0   3.89
Fe     4 -0.2654910000000 -0.2922050000000 -0.1431640000000 1.0   3.89
END
