TITL 4LFP-201124-124039-e141fc 0.0299 167.006270 -6.07453662E+003 8.00000 8.06303 14 (P21) n - 1
REM
REM Run started: Tue, 24 Nov 2020 14:00:55 +0000 in /lustre/scratch/uccabz1/launch_tmp/launcher_2020-11-24-12-40-37-436572
REM CASTEP 20.1 from code version af48c487+ pr-geom-scf-spinfix Tue Jun 2 15:39:59 2020 +0100
REM Functional Perdew Burke Ernzerhof Relativity Koelling-Harmon Dispersion off
REM Cut-off 300.0000 eV Grid scale 1.7500 Gmax 15.5288 1/A FBSC none
REM MP grid 3 3 3 Offset 0.000 0.000 0.000 No. kpts 10 Spacing 0.07
REM Total runtime: 5149.61 s
REM Overall efficiency: 73.8571 %
REM
REM 4LFP.cell (a815d5d25b9f25a0a111bfe3624e67be)
REM
REM compiler GCC version 4.9.2
REM options -cpp -iprefix /lustre/shared/ucl/apps/gcc/4.9.2/bin/../lib/gcc/x86_64-unknown-linux-gnu/4.9.2/ -mtune=corei7 -march=x86-64 -g -Og
REM COMMAND_LINE
REM seed -2033375274 -2133062092 415252774 1712363581 -669073226 -1834540305 -129310408 -292664738 1407562804 -1077691191 -1766549652 -195123342
REM
REM P 3|1.8|4|5|5|30:31:32(qc=5)
REM O 2|1.5|12|13|15|20:21(qc=5)
REM Li 1|1.3|8|9|10|10U:20(qc=5)
REM Fe 3|2.2|2.0|1.0|8|9|10|40:41:32(qc=5)
REM Fe d:4.0 
REM
CELL 1.54180    5.01768    4.91285    6.77520   90.00000   89.37198   90.00000
LATT -1
SFAC Li O  P  Fe 
Li     1  0.3213560000000 -0.0277950000000 -0.4884940000000 1.0  -0.01
Li     1 -0.3213560000000 -0.5277950000000  0.4884940000000 1.0  -0.01
O      2  0.2329910000000  0.7852700000000  0.2699510000000 1.0   0.04
O      2  0.3163210000000  0.3463600000000  0.4530450000000 1.0   0.01
O      2 -0.1130290000000  0.4023860000000  0.2555100000000 1.0   0.04
O      2  0.3215740000000  0.3592600000000  0.0726920000000 1.0   0.07
O      2 -0.2329910000000  0.2852700000000 -0.2699510000000 1.0   0.04
O      2 -0.3163210000000 -0.1536400000000 -0.4530450000000 1.0   0.01
O      2  0.1130290000000 -0.0976140000000 -0.2555100000000 1.0   0.04
O      2 -0.3215740000000 -0.1407400000000 -0.0726920000000 1.0   0.07
P      3  0.1898630000000  0.4702190000000  0.2716300000000 1.0   0.01
P      3 -0.1898630000000 -0.0297810000000 -0.2716300000000 1.0   0.01
Fe     4 -0.2808000000000  0.4442570000000 -0.0071190000000 1.0   3.84
Fe     4  0.2808000000000 -0.0557430000000  0.0071190000000 1.0   3.84
END
