TITL 4LFP_actual-201126-215804-2fc3e1 -0.0058 298.356761 -1.21478625E+004 16.0000 16.1940 28 (Pc) n - 1
REM
REM Run started: Fri, 27 Nov 2020 00:14:57 +0000 in /lustre/scratch/uccabz1/launch_tmp/launcher_2020-11-26-21-57-57-053855
REM CASTEP 20.1 from code version af48c487+ pr-geom-scf-spinfix Tue Jun 2 15:39:59 2020 +0100
REM Functional Perdew Burke Ernzerhof Relativity Koelling-Harmon Dispersion off
REM Cut-off 300.0000 eV Grid scale 1.7500 Gmax 15.5288 1/A FBSC none
REM MP grid 3 2 2 Offset 0.000 0.000 0.000 No. kpts 3 Spacing 0.07
REM Total runtime: 8426.57 s
REM Overall efficiency: 81.2 %
REM
REM 4LFP_actual.cell (cb690b6ff984803026f07b083c6867a4)
REM
REM compiler GCC version 4.9.2
REM options -cpp -iprefix /lustre/shared/ucl/apps/gcc/4.9.2/bin/../lib/gcc/x86_64-unknown-linux-gnu/4.9.2/ -mtune=corei7 -march=x86-64 -g -Og
REM COMMAND_LINE
REM seed -2039628720 -1920572879 -35273092 -247134909 1492948106 334801668 1850125251 1551778192 -264771441 -2131667117 448113385 1885512671
REM
REM P 3|1.8|4|5|5|30:31:32(qc=5)
REM O 2|1.5|12|13|15|20:21(qc=5)
REM Li 1|1.3|8|9|10|10U:20(qc=5)
REM Fe 3|2.2|2.0|1.0|8|9|10|40:41:32(qc=5)
REM Fe d:4.0 
REM
CELL 1.54180    4.77965    7.71284    8.09433   90.00000   90.00000   90.91201
LATT -1
SFAC Li O  P  Fe 
Li     1  0.3516180000000 -0.3688330000000 -0.3349910000000 1.0  -0.03
Li     1  0.3516180000000  0.1311670000000  0.3349910000000 1.0  -0.03
Li     1 -0.1790500000000 -0.0624260000000 -0.1766950000000 1.0  -0.04
Li     1 -0.1790500000000 -0.5624260000000  0.1766950000000 1.0  -0.04
O      2 -0.0168960000000  0.1800840000000  0.2258560000000 1.0   0.02
O      2 -0.3888020000000 -0.0673950000000  0.2355730000000 1.0   0.05
O      2 -0.3565170000000  0.1176280000000 -0.0179020000000 1.0   0.04
O      2  0.0260320000000 -0.0764770000000  0.0355850000000 1.0   0.05
O      2 -0.0168960000000 -0.3199160000000 -0.2258560000000 1.0   0.02
O      2 -0.3888020000000 -0.5673950000000 -0.2355730000000 1.0   0.05
O      2 -0.3565170000000 -0.3823720000000  0.0179020000000 1.0   0.04
O      2  0.0260320000000 -0.5764770000000 -0.0355850000000 1.0   0.05
O      2  0.4675020000000 -0.1382430000000 -0.2557660000000 1.0   0.02
O      2  0.1268300000000  0.1170100000000 -0.2583140000000 1.0   0.05
O      2  0.5583930000000  0.1146780000000 -0.4491470000000 1.0   0.05
O      2  0.1572750000000 -0.0751190000000 -0.5091190000000 1.0   0.04
O      2  0.4675020000000  0.3617570000000  0.2557660000000 1.0   0.02
O      2  0.1268300000000  0.6170100000000  0.2583140000000 1.0   0.05
O      2  0.5583930000000  0.6146780000000  0.4491470000000 1.0   0.05
O      2  0.1572750000000  0.4248810000000  0.5091190000000 1.0   0.04
P      3 -0.1803860000000  0.0434420000000  0.1271560000000 1.0   0.01
P      3 -0.1803860000000 -0.4565580000000 -0.1271560000000 1.0   0.01
P      3  0.3292360000000  0.0009200000000 -0.3629810000000 1.0   0.01
P      3  0.3292360000000  0.5009200000000  0.3629810000000 1.0   0.01
Fe     4 -0.1451040000000 -0.2161600000000  0.4003200000000 1.0   3.86
Fe     4 -0.1451040000000  0.2838400000000 -0.4003200000000 1.0   3.86
Fe     4  0.3242860000000  0.2633540000000 -0.0453040000000 1.0   3.87
Fe     4  0.3242860000000 -0.2366460000000  0.0453040000000 1.0   3.87
END
