TITL 4LFP_actual-201126-203340-61e88e 0.0904 329.787531 -1.21468989E+004 16.0000 16.3119 28 (P1) n - 1
REM
REM Run started: Fri, 27 Nov 2020 04:19:38 +0000 in /scratch/scratch/mmm0366/launch_tmp/launcher_2020-11-26-20-33-35-890952
REM CASTEP 19.11| from code version Version unavailable
REM Functional Perdew Burke Ernzerhof Relativity Koelling-Harmon Dispersion off
REM Cut-off 300.0000 eV Grid scale 1.7500 Gmax 15.5288 1/A FBSC none
REM MP grid 3 3 2 Offset 0.000 0.000 0.000 No. kpts 6 Spacing 0.07
REM Total runtime: 30622 s
REM Overall efficiency: 97.4 %
REM
REM 4LFP_actual.cell (cb690b6ff984803026f07b083c6867a4)
REM
REM compiler GCC version 4.9.2
REM options -cpp -iprefix /scratch/UCL/applications/gcc/4.9.2/bin/../lib/gcc/x86_64-unknown-linux-gnu/4.9.2/ -mtune=corei7 -march=x86-64 -g -O2
REM COMMAND_LINE
REM seed 108726402 -2023694871 1649320253 -1900280225 989796095 -1009247080 -124441814 -1037767672 2121803883 424674054 -1233622712 -291572139
REM
REM P 3|1.8|4|5|5|30:31:32(qc=5)
REM O 2|1.5|12|13|15|20:21(qc=5)
REM Li 1|1.3|8|9|10|10U:20(qc=5)
REM Fe 3|2.2|2.0|1.0|8|9|10|40:41:32(qc=5)
REM Fe d:4.0 
REM
CELL 1.54180    6.01352    6.01352    9.66308   76.88381   76.88381   92.47876
LATT -1
SFAC Li O  P  Fe 
Li     1 -0.3204830000000  0.0154730000000 -0.0086520000000 1.0  -0.02
Li     1 -0.0154730000000  0.3204830000000  0.0086520000000 1.0  -0.02
Li     1  0.0133950000000 -0.1777460000000 -0.2439970000000 1.0  -0.02
Li     1  0.1777460000000 -0.0133950000000  0.2439970000000 1.0  -0.02
O      2  0.1360510000000 -0.7351030000000  0.3519830000000 1.0   0.04
O      2  0.4141740000000 -0.3807780000000  0.2057490000000 1.0   0.07
O      2  0.1108070000000 -0.4973310000000  0.0997810000000 1.0   0.04
O      2 -0.0011860000000 -0.3312060000000  0.3257360000000 1.0   0.04
O      2  0.7351030000000 -0.1360510000000 -0.3519830000000 1.0   0.04
O      2  0.3807780000000 -0.4141740000000 -0.2057490000000 1.0   0.07
O      2  0.4973310000000 -0.1108070000000 -0.0997810000000 1.0   0.04
O      2  0.3312060000000  0.0011860000000 -0.3257360000000 1.0   0.04
O      2 -0.2937150000000  0.3310310000000 -0.3414720000000 1.0   0.07
O      2 -0.1833900000000  0.5143530000000 -0.1369150000000 1.0   0.02
O      2 -0.0561050000000  0.1387700000000 -0.1648440000000 1.0   0.01
O      2  0.1017830000000  0.4982740000000 -0.3736620000000 1.0   0.05
O      2 -0.3310310000000  0.2937150000000  0.3414720000000 1.0   0.07
O      2 -0.5143530000000  0.1833900000000  0.1369150000000 1.0   0.02
O      2 -0.1387700000000  0.0561050000000  0.1648440000000 1.0   0.01
O      2 -0.4982740000000 -0.1017830000000  0.3736620000000 1.0   0.05
P      3  0.1564980000000 -0.4879940000000  0.2494600000000 1.0   0.01
P      3  0.4879940000000 -0.1564980000000 -0.2494600000000 1.0   0.01
P      3 -0.1106700000000  0.3703770000000 -0.2536510000000 1.0   0.01
P      3 -0.3703770000000  0.1106700000000  0.2536510000000 1.0   0.01
Fe     4 -0.3519390000000 -0.3745230000000  0.3382710000000 1.0   3.82
Fe     4  0.3745230000000  0.3519390000000 -0.3382710000000 1.0   3.82
Fe     4 -0.1430120000000  0.1430120000000  0.5000000000000 1.0   3.87
Fe     4  0.4802430000000 -0.4802430000000  0.0000000000000 1.0   3.85
END
