TITL 4LFP-201124-103438-b79bab 0.1890 139.024567 -6.06715827E+003 1.99861 8.18652 14 (C2) n - 1
REM
REM Run started: Tue, 24 Nov 2020 12:54:30 +0000 in /scratch/scratch/uccabz1/launch_tmp/launcher_2020-11-24-12-44-59-278665
REM CASTEP 19.11| from code version Version unavailable
REM Functional Perdew Burke Ernzerhof Relativity Koelling-Harmon Dispersion off
REM Cut-off 300.0000 eV Grid scale 1.7500 Gmax 15.5288 1/A FBSC none
REM MP grid 4 4 3 Offset 0.000 0.000 0.000 No. kpts 16 Spacing 0.07
REM Total runtime: 7603.48 s
REM Overall efficiency: 90.6667 %
REM
REM
REM
REM compiler GCC version 4.9.2
REM options -cpp -iprefix /scratch/UCL/applications/gcc/4.9.2/bin/../lib/gcc/x86_64-unknown-linux-gnu/4.9.2/ -mtune=corei7 -march=x86-64 -g -O2
REM COMMAND_LINE
REM seed 1639431297 -1180549626 1341089179 1302803832 -242735319 -1150337430 -1478997448 1336324555 -243474911 -2014603584 341394974 -1715680712
REM
REM P 3|1.8|4|5|5|30:31:32(qc=5)
REM O 2|1.5|12|13|15|20:21(qc=5)
REM Li 1|1.3|8|9|10|10U:20(qc=5)
REM Fe 3|2.2|2.0|1.0|8|9|10|40:41:32(qc=5)
REM Fe d:4.0 
REM
CELL 1.54180    5.07382    5.07382    6.02298   99.32597   99.32597  110.70300
LATT -1
SFAC Li O  P  Fe 
Li     1 -0.5374860000000  0.2657090000000 -0.1893330000000 1.0  -0.01
Li     1 -0.2657090000000  0.5374860000000  0.1893330000000 1.0  -0.01
O      2 -0.1057520000000 -0.5103780000000 -0.5433450000000 1.0   0.18
O      2 -0.0367550000000 -0.6265650000000 -0.1394940000000 1.0   0.02
O      2  0.1800610000000 -0.0833470000000 -0.1690570000000 1.0   0.09
O      2 -0.5394390000000 -0.3712950000000 -0.1976020000000 1.0   0.15
O      2  0.5103780000000  0.1057520000000  0.5433450000000 1.0   0.18
O      2  0.6265650000000  0.0367550000000  0.1394940000000 1.0   0.02
O      2  0.0833470000000 -0.1800610000000  0.1690570000000 1.0   0.09
O      2  0.3712950000000  0.5394390000000  0.1976020000000 1.0   0.15
P      3 -0.1755110000000  0.1755110000000  0.5000000000000 1.0   0.00
P      3  0.2823610000000 -0.2823610000000  0.0000000000000 1.0  -0.01
Fe     4 -0.0534600000000  0.0534600000000  0.0000000000000 1.0  -3.06
Fe     4  0.2948520000000 -0.2948520000000 -0.5000000000000 1.0   4.21
END
