TITL 4LFP_actual-201126-183017-af6165 -0.0207 292.821118 -1.21474738E+004 16.0000 16.2303 28 (P-1) n - 1
REM
REM Run started: Thu, 26 Nov 2020 21:21:11 +0000 in /lustre/scratch/uccabz1/launch_tmp/launcher_2020-11-26-18-30-10-099351
REM CASTEP 20.1 from code version af48c487+ pr-geom-scf-spinfix Tue Jun 2 15:39:59 2020 +0100
REM Functional Perdew Burke Ernzerhof Relativity Koelling-Harmon Dispersion off
REM Cut-off 300.0000 eV Grid scale 1.7500 Gmax 15.5288 1/A FBSC none
REM MP grid 3 3 2 Offset 0.000 0.000 0.000 No. kpts 9 Spacing 0.07
REM Total runtime: 10952.5 s
REM Overall efficiency: 79.75 %
REM
REM 4LFP_actual.cell (cb690b6ff984803026f07b083c6867a4)
REM
REM compiler GCC version 4.9.2
REM options -cpp -iprefix /lustre/shared/ucl/apps/gcc/4.9.2/bin/../lib/gcc/x86_64-unknown-linux-gnu/4.9.2/ -mtune=corei7 -march=x86-64 -g -Og
REM COMMAND_LINE
REM seed 1406265460 664450525 604290302 2008091108 835018184 1117159820 -1389257750 -489209731 1026061153 -471789076 1570718157 -1164060705
REM
REM P 3|1.8|4|5|5|30:31:32(qc=5)
REM O 2|1.5|12|13|15|20:21(qc=5)
REM Li 1|1.3|8|9|10|10U:20(qc=5)
REM Fe 3|2.2|2.0|1.0|8|9|10|40:41:32(qc=5)
REM Fe d:4.0 
REM
CELL 1.54180    5.63725    7.28373    7.56551   76.02606   76.38436   84.97683
LATT -1
SFAC Li O  P  Fe 
Li     1 -0.1830680000000 -0.0299210000000  0.3853740000000 1.0  -0.01
Li     1  0.1830680000000  0.0299210000000 -0.3853740000000 1.0  -0.01
Li     1 -0.0147760000000 -0.2333300000000  0.1320730000000 1.0  -0.04
Li     1  0.0147760000000  0.2333300000000 -0.1320730000000 1.0  -0.04
O      2  0.0651630000000 -0.2010980000000 -0.1310630000000 1.0   0.03
O      2 -0.1266900000000 -0.2239220000000 -0.4110520000000 1.0   0.03
O      2  0.0432940000000 -0.5036010000000 -0.2191230000000 1.0   0.06
O      2 -0.3604330000000 -0.3340050000000 -0.0739950000000 1.0   0.05
O      2 -0.0651630000000  0.2010980000000  0.1310630000000 1.0   0.03
O      2  0.1266900000000  0.2239220000000  0.4110520000000 1.0   0.03
O      2 -0.0432940000000  0.5036010000000  0.2191230000000 1.0   0.06
O      2  0.3604330000000  0.3340050000000  0.0739950000000 1.0   0.05
O      2  0.3705880000000 -0.1801620000000  0.5391050000000 1.0   0.04
O      2  0.2286300000000 -0.1106930000000  0.2210680000000 1.0   0.05
O      2  0.6660640000000 -0.1520430000000  0.2286830000000 1.0   0.04
O      2  0.3668720000000 -0.4350420000000  0.3650480000000 1.0   0.06
O      2 -0.3705880000000  0.1801620000000 -0.5391050000000 1.0   0.04
O      2 -0.2286300000000  0.1106930000000 -0.2210680000000 1.0   0.05
O      2 -0.6660640000000  0.1520430000000 -0.2286830000000 1.0   0.04
O      2 -0.3668720000000  0.4350420000000 -0.3650480000000 1.0   0.06
P      3 -0.1004670000000 -0.3070240000000 -0.2081600000000 1.0   0.00
P      3  0.1004670000000  0.3070240000000  0.2081600000000 1.0   0.00
P      3  0.4090240000000 -0.2207270000000  0.3451220000000 1.0   0.01
P      3 -0.4090240000000  0.2207270000000 -0.3451220000000 1.0   0.01
Fe     4  0.3896900000000 -0.3952450000000 -0.2137390000000 1.0   3.85
Fe     4 -0.3896900000000  0.3952450000000  0.2137390000000 1.0   3.85
Fe     4 -0.5000000000000  0.0000000000000  0.0000000000000 1.0   3.83
Fe     4  0.0000000000000  0.5000000000000 -0.5000000000000 1.0   3.84
END
