TITL 4LFP-201124-130943-3f6b53 -0.0029 156.378979 -6.07197892E+003 8.00000 8.14385 14 (C222) n - 1
REM
REM Run started: Tue, 24 Nov 2020 13:36:31 +0000 in /scratch/scratch/uccabz1/launch_tmp/launcher_2020-11-24-13-09-41-421911
REM CASTEP 19.11| from code version Version unavailable
REM Functional Perdew Burke Ernzerhof Relativity Koelling-Harmon Dispersion off
REM Cut-off 300.0000 eV Grid scale 1.7500 Gmax 15.5288 1/A FBSC none
REM MP grid 3 3 4 Offset 0.000 0.000 0.000 No. kpts 12 Spacing 0.07
REM Total runtime: 2505 s
REM Overall efficiency: 93.3333 %
REM
REM 4LFP.cell (a815d5d25b9f25a0a111bfe3624e67be)
REM
REM compiler GCC version 4.9.2
REM options -cpp -iprefix /scratch/UCL/applications/gcc/4.9.2/bin/../lib/gcc/x86_64-unknown-linux-gnu/4.9.2/ -mtune=corei7 -march=x86-64 -g -O2
REM COMMAND_LINE
REM seed -1680446308 205765055 -1911243448 1368559485 1907349338 -1475010159 -472629654 1962922926 -357239902 966434850 1831735025 -488657129
REM
REM P 3|1.8|4|5|5|30:31:32(qc=5)
REM O 2|1.5|12|13|15|20:21(qc=5)
REM Li 1|1.3|8|9|10|10U:20(qc=5)
REM Fe 3|2.2|2.0|1.0|8|9|10|40:41:32(qc=5)
REM Fe d:4.0 
REM
CELL 1.54180    4.85863    7.06333    5.76512  127.77721   90.00000   90.00000
LATT -1
SFAC Li O  P  Fe 
Li     1 -0.5000000000000  0.5000000000000  0.0000000000000 1.0  -0.02
Li     1  0.0000000000000  0.0000000000000  0.0000000000000 1.0  -0.05
O      2  0.1905610000000  0.2790730000000 -0.2063740000000 1.0   0.03
O      2  0.3020890000000  0.2146950000000  0.2011950000000 1.0   0.04
O      2  0.1905610000000 -0.2790730000000  0.2063740000000 1.0   0.03
O      2  0.3020890000000 -0.2146950000000 -0.2011950000000 1.0   0.04
O      2 -0.1905610000000 -0.4854480000000 -0.2063740000000 1.0   0.03
O      2 -0.3020890000000 -0.0135000000000  0.2011950000000 1.0   0.04
O      2 -0.1905610000000  0.4854480000000  0.2063740000000 1.0   0.03
O      2 -0.3020890000000  0.0135000000000 -0.2011950000000 1.0   0.04
P      3 -0.5000000000000  0.0000000000000  0.0000000000000 1.0   0.03
P      3  0.0000000000000 -0.5000000000000  0.0000000000000 1.0   0.00
Fe     4  0.0718880000000  0.5000000000000  0.5000000000000 1.0   3.87
Fe     4 -0.0718880000000  0.0000000000000  0.5000000000000 1.0   3.87
END
