TITL 4LFP-201124-121312-1a378d -0.0094 152.461374 -6.07315520E+003 8.00000 8.08523 14 (C2) n - 1
REM
REM Run started: Tue, 24 Nov 2020 13:35:51 +0000 in /lustre/scratch/uccabz1/launch_tmp/launcher_2020-11-24-12-13-10-173249
REM CASTEP 20.1 from code version af48c487+ pr-geom-scf-spinfix Tue Jun 2 15:39:59 2020 +0100
REM Functional Perdew Burke Ernzerhof Relativity Koelling-Harmon Dispersion off
REM Cut-off 300.0000 eV Grid scale 1.7500 Gmax 15.5288 1/A FBSC none
REM MP grid 4 4 3 Offset 0.000 0.000 0.000 No. kpts 16 Spacing 0.07
REM Total runtime: 6401.95 s
REM Overall efficiency: 94.8571 %
REM
REM 4LFP.cell (a815d5d25b9f25a0a111bfe3624e67be)
REM
REM compiler GCC version 4.9.2
REM options -cpp -iprefix /lustre/shared/ucl/apps/gcc/4.9.2/bin/../lib/gcc/x86_64-unknown-linux-gnu/4.9.2/ -mtune=corei7 -march=x86-64 -g -Og
REM COMMAND_LINE
REM seed 518905141 89720106 1983497943 -157522430 -2125473258 -151096311 -533793054 -947930498 1879929820 1754974950 894907246 1911115594
REM
REM P 3|1.8|4|5|5|30:31:32(qc=5)
REM O 2|1.5|12|13|15|20:21(qc=5)
REM Li 1|1.3|8|9|10|10U:20(qc=5)
REM Fe 3|2.2|2.0|1.0|8|9|10|40:41:32(qc=5)
REM Fe d:4.0 
REM
CELL 1.54180    4.92389    4.92389    6.75313   86.39994   86.39994   69.05217
LATT -1
SFAC Li O  P  Fe 
Li     1  0.0604090000000 -0.0604090000000  0.0000000000000 1.0  -0.05
Li     1  1.0592460000000 -0.0592460000000 -0.5000000000000 1.0  -0.03
O      2  0.9959780000000 -0.5626100000000 -0.1420450000000 1.0   0.04
O      2  0.8133380000000 -0.0257930000000 -0.2330850000000 1.0   0.04
O      2  0.8575330000000 -0.3676310000000 -0.4952530000000 1.0   0.03
O      2  0.4615510000000 -0.3107610000000 -0.2119250000000 1.0   0.03
O      2 -0.4373900000000  0.0040220000000  0.1420450000000 1.0   0.04
O      2 -0.9742070000000  0.1866620000000  0.2330850000000 1.0   0.04
O      2 -0.6323690000000  0.1424670000000  0.4952530000000 1.0   0.03
O      2 -0.6892390000000  0.5384490000000  0.2119250000000 1.0   0.03
P      3  0.7754120000000 -0.3229410000000 -0.2728590000000 1.0   0.01
P      3 -0.6770590000000  0.2245880000000  0.2728590000000 1.0   0.01
Fe     4 -0.5848580000000  0.2904030000000 -0.2361770000000 1.0   3.88
Fe     4  0.7095970000000 -0.4151420000000  0.2361770000000 1.0   3.88
END
