TITL 4LFP_actual-201127-015933-2467dc -0.0198 308.517721 -1.21481880E+004 16.0000 16.2759 28 (Pc) n - 1
REM
REM Run started: Fri, 27 Nov 2020 05:00:18 +0000 in /lustre/scratch/uccabz1/launch_tmp/launcher_2020-11-27-01-59-21-481390
REM CASTEP 20.1 from code version af48c487+ pr-geom-scf-spinfix Tue Jun 2 15:39:59 2020 +0100
REM Functional Perdew Burke Ernzerhof Relativity Koelling-Harmon Dispersion off
REM Cut-off 300.0000 eV Grid scale 1.7500 Gmax 15.5288 1/A FBSC none
REM MP grid 3 2 2 Offset 0.000 0.000 0.000 No. kpts 3 Spacing 0.07
REM Total runtime: 11565.7 s
REM Overall efficiency: 86.75 %
REM
REM 4LFP_actual.cell (cb690b6ff984803026f07b083c6867a4)
REM
REM compiler GCC version 4.9.2
REM options -cpp -iprefix /lustre/shared/ucl/apps/gcc/4.9.2/bin/../lib/gcc/x86_64-unknown-linux-gnu/4.9.2/ -mtune=corei7 -march=x86-64 -g -Og
REM COMMAND_LINE
REM seed -1488789426 -463532232 1658786561 -440346087 1714192033 989178763 -2104251601 802077138 -208966418 -1545022625 974568084 -1242866881
REM
REM P 3|1.8|4|5|5|30:31:32(qc=5)
REM O 2|1.5|12|13|15|20:21(qc=5)
REM Li 1|1.3|8|9|10|10U:20(qc=5)
REM Fe 3|2.2|2.0|1.0|8|9|10|40:41:32(qc=5)
REM Fe d:4.0 
REM
CELL 1.54180    5.33530    7.49520    7.74514   90.00000   95.05370   90.00000
LATT -1
SFAC Li O  P  Fe 
Li     1 -0.0474820000000 -0.2372780000000  0.2086790000000 1.0  -0.03
Li     1 -0.5474820000000  0.2372780000000 -0.2913210000000 1.0  -0.03
Li     1 -0.3347390000000  0.1145660000000  0.0344030000000 1.0  -0.03
Li     1 -0.8347390000000 -0.1145660000000 -0.4655970000000 1.0  -0.03
O      2  0.5115740000000  0.5096770000000  0.2884050000000 1.0   0.04
O      2  0.1168930000000  0.6551660000000  0.4144200000000 1.0   0.02
O      2  0.2193060000000  0.3399510000000  0.4799240000000 1.0   0.05
O      2  0.5221900000000  0.5780660000000  0.6048090000000 1.0   0.05
O      2  0.0115740000000 -0.5096770000000 -0.2115950000000 1.0   0.04
O      2 -0.3831070000000 -0.6551660000000 -0.0855800000000 1.0   0.02
O      2 -0.2806940000000 -0.3399510000000 -0.0200760000000 1.0   0.05
O      2  0.0221900000000 -0.5780660000000  0.1048090000000 1.0   0.05
O      2  0.8184620000000  0.0440850000000  0.2565870000000 1.0   0.02
O      2  0.8015990000000 -0.1196480000000  0.5337380000000 1.0   0.04
O      2  0.7073870000000  0.2088360000000  0.5330180000000 1.0   0.04
O      2  0.3913980000000 -0.0059930000000  0.3838730000000 1.0   0.04
O      2  0.3184620000000 -0.0440850000000 -0.2434130000000 1.0   0.02
O      2  0.3015990000000  0.1196480000000  0.0337380000000 1.0   0.04
O      2  0.2073870000000 -0.2088360000000  0.0330180000000 1.0   0.04
O      2 -0.1086020000000  0.0059930000000 -0.1161270000000 1.0   0.04
P      3  0.3451870000000  0.5269240000000  0.4417350000000 1.0   0.01
P      3 -0.1548130000000 -0.5269240000000 -0.0582650000000 1.0   0.01
P      3  0.6747080000000  0.0346100000000  0.4247900000000 1.0   0.01
P      3  0.1747080000000 -0.0346100000000 -0.0752100000000 1.0   0.01
Fe     4 -0.1418930000000  0.4529110000000 -0.4693050000000 1.0   3.86
Fe     4  0.3581070000000 -0.4529110000000  0.0306950000000 1.0   3.86
Fe     4  0.1662980000000  0.1930630000000  0.2561280000000 1.0   3.86
Fe     4 -0.3337020000000 -0.1930630000000 -0.2438720000000 1.0   3.86
END
