TITL 4LFP-201124-085649-5e9273 -0.0546 156.324470 -6.07089679E+003 8.00000 8.11028 14 (P-1) n - 1
REM
REM Run started: Tue, 24 Nov 2020 11:19:33 +0000 in /lustre/scratch/uccabz1/launch_tmp/launcher_2020-11-24-08-56-47-308065
REM CASTEP 20.1 from code version af48c487+ pr-geom-scf-spinfix Tue Jun 2 15:39:59 2020 +0100
REM Functional Perdew Burke Ernzerhof Relativity Koelling-Harmon Dispersion off
REM Cut-off 300.0000 eV Grid scale 1.7500 Gmax 15.5288 1/A FBSC none
REM MP grid 4 4 2 Offset 0.000 0.000 0.000 No. kpts 16 Spacing 0.07
REM Total runtime: 9302.88 s
REM Overall efficiency: 89.1818 %
REM
REM 4LFP.cell (a815d5d25b9f25a0a111bfe3624e67be)
REM
REM compiler GCC version 4.9.2
REM options -cpp -iprefix /lustre/shared/ucl/apps/gcc/4.9.2/bin/../lib/gcc/x86_64-unknown-linux-gnu/4.9.2/ -mtune=corei7 -march=x86-64 -g -Og
REM COMMAND_LINE
REM seed -1513847585 -216443705 -1478398998 140235320 -1257948650 -1788560492 1822649974 -1852522035 846965936 2105123797 -964430208 -626977547
REM
REM P 3|1.8|4|5|5|30:31:32(qc=5)
REM O 2|1.5|12|13|15|20:21(qc=5)
REM Li 1|1.3|8|9|10|10U:20(qc=5)
REM Fe 3|2.2|2.0|1.0|8|9|10|40:41:32(qc=5)
REM Fe d:4.0 
REM
CELL 1.54180    5.26707    4.79447    8.29697   92.51973   76.94679  129.40658
LATT -1
SFAC Li O  P  Fe 
Li     1 -0.1506480000000  0.1111430000000 -0.3113740000000 1.0  -0.05
Li     1  0.1506480000000 -0.1111430000000  0.3113740000000 1.0  -0.05
O      2 -0.2262300000000 -0.6093990000000  0.3159490000000 1.0   0.03
O      2 -0.5146260000000 -1.1359530000000  0.1558080000000 1.0   0.04
O      2  0.0726040000000 -0.8623800000000  0.1624680000000 1.0   0.05
O      2  0.2262300000000  0.6093990000000 -0.3159490000000 1.0   0.03
O      2  0.5146260000000  1.1359530000000 -0.1558080000000 1.0   0.04
O      2 -0.0726040000000  0.8623800000000 -0.1624680000000 1.0   0.05
O      2  0.0000000000000  0.5000000000000  0.0000000000000 1.0   0.02
O      2  0.0000000000000  0.0000000000000  0.5000000000000 1.0   0.12
P      3 -0.1720940000000 -0.7849670000000  0.1696200000000 1.0   0.01
P      3  0.1720940000000  0.7849670000000 -0.1696200000000 1.0   0.01
Fe     4  0.5000000000000  0.5000000000000  0.5000000000000 1.0   3.89
Fe     4  0.5000000000000  0.5000000000000  0.0000000000000 1.0   3.81
END
