TITL 4LFP-201124-063357-f76668 0.0443 145.651033 -6.07413501E+003 8.00000 8.17111 14 (Fdd2) n - 1
REM
REM Run started: Tue, 24 Nov 2020 07:02:56 +0000 in /scratch/scratch/uccabz1/launch_tmp/launcher_2020-11-24-06-33-55-919512
REM CASTEP 19.11| from code version Version unavailable
REM Functional Perdew Burke Ernzerhof Relativity Koelling-Harmon Dispersion off
REM Cut-off 300.0000 eV Grid scale 1.7500 Gmax 15.5288 1/A FBSC none
REM MP grid 4 4 3 Offset 0.000 0.000 0.000 No. kpts 16 Spacing 0.07
REM Total runtime: 1846.1 s
REM Overall efficiency: 91.7143 %
REM
REM 4LFP.cell (a815d5d25b9f25a0a111bfe3624e67be)
REM
REM compiler GCC version 4.9.2
REM options -cpp -iprefix /scratch/UCL/applications/gcc/4.9.2/bin/../lib/gcc/x86_64-unknown-linux-gnu/4.9.2/ -mtune=corei7 -march=x86-64 -g -O2
REM COMMAND_LINE
REM seed -188058063 1396531497 -134657112 -1903011929 -1844700616 2062570954 437762475 -1903959191 369411409 -1906151578 -1193045215 641344291
REM
REM P 3|1.8|4|5|5|30:31:32(qc=5)
REM O 2|1.5|12|13|15|20:21(qc=5)
REM Li 1|1.3|8|9|10|10U:20(qc=5)
REM Fe 3|2.2|2.0|1.0|8|9|10|40:41:32(qc=5)
REM Fe d:4.0 
REM
CELL 1.54180    5.47327    5.47327    6.18108  103.66281  103.66281  117.80685
LATT -1
SFAC Li O  P  Fe 
Li     1  0.1786750000000 -0.1786750000000 -0.0000000000000 1.0  -0.04
Li     1  0.4286750000000  0.5713250000000  0.5000000000000 1.0  -0.04
O      2 -0.2779500000000  0.8008590000000  0.8429570000000 1.0   0.03
O      2 -0.3183200000000  1.1675650000000  0.1547870000000 1.0   0.05
O      2  0.1991410000000 -0.7220500000000 -0.8429570000000 1.0   0.03
O      2 -0.1675650000000 -0.6816800000000 -0.1547870000000 1.0   0.05
O      2  0.1290930000000 -0.2920980000000 -0.3429570000000 1.0   0.03
O      2  0.7768940000000  0.7627780000000  0.3452130000000 1.0   0.05
O      2  0.2920980000000 -0.1290930000000  0.3429570000000 1.0   0.03
O      2 -0.7627780000000 -0.7768940000000 -0.3452130000000 1.0   0.05
P      3 -0.1360410000000  0.1360410000000 -0.0000000000000 1.0   0.01
P      3  0.1139590000000  0.8860410000000  0.5000000000000 1.0   0.01
Fe     4 -0.2079750000000 -0.7920250000000 -0.5000000000000 1.0   3.89
Fe     4 -0.4579750000000  0.4579750000000 -0.0000000000000 1.0   3.89
END
