TITL 4LFP-201124-100005-a75cd2 -0.0156 160.419375 -6.07168823E+003 8.00000 8.17831 14 (P4/n) n - 1
REM
REM Run started: Tue, 24 Nov 2020 10:11:29 +0000 in /lustre/scratch/uccabz1/launch_tmp/launcher_2020-11-24-09-59-59-997387
REM CASTEP 20.1 from code version af48c487+ pr-geom-scf-spinfix Tue Jun 2 15:39:59 2020 +0100
REM Functional Perdew Burke Ernzerhof Relativity Koelling-Harmon Dispersion off
REM Cut-off 300.0000 eV Grid scale 1.7500 Gmax 15.5288 1/A FBSC none
REM MP grid 3 3 3 Offset 0.000 0.000 0.000 No. kpts 6 Spacing 0.07
REM Total runtime: 856.61 s
REM Overall efficiency: 72 %
REM
REM 4LFP.cell (a815d5d25b9f25a0a111bfe3624e67be)
REM
REM compiler GCC version 4.9.2
REM options -cpp -iprefix /lustre/shared/ucl/apps/gcc/4.9.2/bin/../lib/gcc/x86_64-unknown-linux-gnu/4.9.2/ -mtune=corei7 -march=x86-64 -g -Og
REM COMMAND_LINE
REM seed 1432589505 1459074762 -948276150 1523312752 -1442136439 -574047682 734829862 1463392434 756263100 -1717043619 -1265407715 671141605
REM
REM P 3|1.8|4|5|5|30:31:32(qc=5)
REM O 2|1.5|12|13|15|20:21(qc=5)
REM Li 1|1.3|8|9|10|10U:20(qc=5)
REM Fe 3|2.2|2.0|1.0|8|9|10|40:41:32(qc=5)
REM Fe d:4.0 
REM
CELL 1.54180    4.93644    5.70061    5.70061   90.00000   90.00000   90.00000
LATT -1
SFAC Li O  P  Fe 
Li     1  0.0000000000000 -0.0000000000000  0.0000000000000 1.0  -0.04
Li     1  0.0000000000000 -0.5000000000000  0.5000000000000 1.0  -0.04
O      2  0.2974980000000  0.1716820000000  0.1219080000000 1.0   0.05
O      2  0.7025040000000  0.3282840000000  0.3781230000000 1.0   0.05
O      2  0.2974980000000 -0.1716820000000 -0.1219080000000 1.0   0.05
O      2  0.7025040000000 -0.3282840000000 -0.3781230000000 1.0   0.05
O      2 -0.2974980000000 -0.1219080000000  0.1716820000000 1.0   0.05
O      2 -0.7025040000000 -0.3781230000000  0.3282840000000 1.0   0.05
O      2 -0.2974980000000  0.1219080000000 -0.1716820000000 1.0   0.05
O      2 -0.7025040000000  0.3781230000000 -0.3282840000000 1.0   0.05
P      3  0.5000000000000 -0.0000000000000  0.0000000000000 1.0   0.02
P      3  0.5000000000000  0.5000000000000 -0.5000000000000 1.0   0.02
Fe     4  0.2717250000000 -0.5000000000000  0.0000000000000 1.0   3.81
Fe     4 -0.2717250000000 -0.0000000000000  0.5000000000000 1.0   3.81
END
