TITL 4LFP_actual-201126-215800-69c1ee 0.0010 303.697093 -1.21461492E+004 16.0000 16.1981 28 (Cc) n - 1
REM
REM Run started: Fri, 27 Nov 2020 07:07:29 +0000 in /lustre/scratch/uccabz1/launch_tmp/launcher_2020-11-26-21-57-57-054338
REM CASTEP 20.1 from code version af48c487+ pr-geom-scf-spinfix Tue Jun 2 15:39:59 2020 +0100
REM Functional Perdew Burke Ernzerhof Relativity Koelling-Harmon Dispersion off
REM Cut-off 300.0000 eV Grid scale 1.7500 Gmax 15.5288 1/A FBSC none
REM MP grid 3 3 3 Offset 0.000 0.000 0.000 No. kpts 10 Spacing 0.07
REM Total runtime: 32861.3 s
REM Overall efficiency: 70.0909 %
REM
REM 4LFP_actual.cell (cb690b6ff984803026f07b083c6867a4)
REM
REM compiler GCC version 4.9.2
REM options -cpp -iprefix /lustre/shared/ucl/apps/gcc/4.9.2/bin/../lib/gcc/x86_64-unknown-linux-gnu/4.9.2/ -mtune=corei7 -march=x86-64 -g -Og
REM COMMAND_LINE
REM seed -1137711174 -839587130 -2068004012 -1031014130 -1787750826 -3899445 -410727516 24172545 -825288410 216373330 -949715747 1826512472
REM
REM P 3|1.8|4|5|5|30:31:32(qc=5)
REM O 2|1.5|12|13|15|20:21(qc=5)
REM Li 1|1.3|8|9|10|10U:20(qc=5)
REM Fe 3|2.2|2.0|1.0|8|9|10|40:41:32(qc=5)
REM Fe d:4.0 
REM
CELL 1.54180    8.24034    8.23269    8.23269   67.90240   47.80640   47.80640
LATT -1
SFAC Li O  P  Fe 
Li     1  0.3774590000000 -0.4605590000000 -0.2742190000000 1.0  -0.04
Li     1 -0.1225410000000 -0.2742190000000 -0.4605590000000 1.0  -0.04
Li     1 -0.4897510000000 -0.3155500000000  0.0227520000000 1.0  -0.03
Li     1  0.0102490000000  0.0227520000000 -0.3155500000000 1.0  -0.03
O      2  0.2373530000000 -0.3265970000000 -0.0405650000000 1.0   0.03
O      2 -0.2416580000000 -0.0043150000000  0.2495920000000 1.0   0.05
O      2  0.1595200000000 -0.0468050000000  0.1174780000000 1.0   0.04
O      2  0.0899680000000  0.0522970000000 -0.1617870000000 1.0   0.03
O      2 -0.2626470000000 -0.0405650000000 -0.3265970000000 1.0   0.03
O      2 -0.7416580000000  0.2495920000000 -0.0043150000000 1.0   0.05
O      2 -0.3404800000000  0.1174780000000 -0.0468050000000 1.0   0.04
O      2 -0.4100320000000 -0.1617870000000  0.0522970000000 1.0   0.03
O      2 -0.1743630000000  0.4975110000000 -0.2580020000000 1.0   0.02
O      2  0.2269080000000  0.2066990000000 -0.5943180000000 1.0   0.04
O      2 -0.2408430000000  0.3197570000000 -0.3977620000000 1.0   0.02
O      2 -0.1381040000000  0.5962670000000 -0.6018990000000 1.0   0.04
O      2  0.3256370000000 -0.2580020000000  0.4975110000000 1.0   0.02
O      2  0.7269080000000 -0.5943180000000  0.2066990000000 1.0   0.04
O      2  0.2591570000000 -0.3977620000000  0.3197570000000 1.0   0.02
O      2  0.3618960000000 -0.6018990000000  0.5962670000000 1.0   0.04
P      3  0.0531790000000 -0.0784860000000  0.0400110000000 1.0   0.01
P      3 -0.4468210000000  0.0400110000000 -0.0784860000000 1.0   0.01
P      3 -0.0870220000000  0.4013490000000 -0.4571340000000 1.0   0.01
P      3  0.4129780000000 -0.4571340000000  0.4013490000000 1.0   0.01
Fe     4 -0.4127070000000 -0.1424620000000  0.3035790000000 1.0   3.91
Fe     4  0.0872930000000  0.3035790000000 -0.1424620000000 1.0   3.91
Fe     4 -0.1839690000000  0.1395830000000  0.4137840000000 1.0   3.87
Fe     4  0.3160310000000  0.4137840000000  0.1395830000000 1.0   3.87
END
