TITL 4LFP_actual-201126-204855-5f48cd -0.0277 356.898003 -1.21469638E+004 16.0000 16.2564 28 (P43) n - 1
REM
REM Run started: Thu, 26 Nov 2020 22:03:18 +0000 in /lustre/scratch/uccabz1/launch_tmp/launcher_2020-11-26-20-48-37-839477
REM CASTEP 20.1 from code version af48c487+ pr-geom-scf-spinfix Tue Jun 2 15:39:59 2020 +0100
REM Functional Perdew Burke Ernzerhof Relativity Koelling-Harmon Dispersion off
REM Cut-off 300.0000 eV Grid scale 1.7500 Gmax 15.5288 1/A FBSC none
REM MP grid 3 3 1 Offset 0.000 0.000 0.000 No. kpts 3 Spacing 0.07
REM Total runtime: 4720.85 s
REM Overall efficiency: 70.5 %
REM
REM 4LFP_actual.cell (cb690b6ff984803026f07b083c6867a4)
REM
REM compiler GCC version 4.9.2
REM options -cpp -iprefix /lustre/shared/ucl/apps/gcc/4.9.2/bin/../lib/gcc/x86_64-unknown-linux-gnu/4.9.2/ -mtune=corei7 -march=x86-64 -g -Og
REM COMMAND_LINE
REM seed -730951476 -359520911 872405433 -1785639024 292556117 -195872557 1876066517 -1070926153 -2085647249 -1754231864 -1830362715 1310070060
REM
REM P 3|1.8|4|5|5|30:31:32(qc=5)
REM O 2|1.5|12|13|15|20:21(qc=5)
REM Li 1|1.3|8|9|10|10U:20(qc=5)
REM Fe 3|2.2|2.0|1.0|8|9|10|40:41:32(qc=5)
REM Fe d:4.0 
REM
CELL 1.54180    4.89589    4.89589   14.88954   90.00000   90.00000   90.00000
LATT -1
SFAC Li O  P  Fe 
Li     1 -0.1519100000000 -0.0691530000000  0.1084790000000 1.0  -0.03
Li     1  0.1519100000000  0.0691530000000 -0.3915210000000 1.0  -0.03
Li     1  0.0691530000000 -0.1519100000000 -0.1415210000000 1.0  -0.03
Li     1 -0.0691530000000  0.1519100000000  0.3584790000000 1.0  -0.03
O      2  0.5908870000000  0.0987440000000  0.1789860000000 1.0   0.04
O      2  0.4189420000000 -0.3309530000000  0.2652560000000 1.0   0.06
O      2  0.5626120000000  0.0581990000000  0.3536030000000 1.0   0.05
O      2  0.1385680000000  0.1155910000000  0.2517360000000 1.0   0.03
O      2 -0.5908870000000 -0.0987440000000 -0.3210140000000 1.0   0.04
O      2 -0.4189420000000  0.3309530000000 -0.2347440000000 1.0   0.06
O      2 -0.5626120000000 -0.0581990000000 -0.1463970000000 1.0   0.05
O      2 -0.1385680000000 -0.1155910000000 -0.2482640000000 1.0   0.03
O      2 -0.0987440000000  0.5908870000000 -0.0710140000000 1.0   0.04
O      2  0.3309530000000  0.4189420000000  0.0152560000000 1.0   0.06
O      2 -0.0581990000000  0.5626120000000  0.1036030000000 1.0   0.05
O      2 -0.1155910000000  0.1385680000000  0.0017360000000 1.0   0.03
O      2  0.0987440000000 -0.5908870000000 -0.5710140000000 1.0   0.04
O      2 -0.3309530000000 -0.4189420000000 -0.4847440000000 1.0   0.06
O      2  0.0581990000000 -0.5626120000000 -0.3963970000000 1.0   0.05
O      2  0.1155910000000 -0.1385680000000 -0.4982640000000 1.0   0.03
P      3  0.4283690000000 -0.0075640000000  0.2604650000000 1.0  -0.00
P      3 -0.4283690000000  0.0075640000000 -0.2395350000000 1.0  -0.00
P      3  0.0075640000000  0.4283690000000  0.0104650000000 1.0  -0.00
P      3 -0.0075640000000 -0.4283690000000 -0.4895350000000 1.0  -0.00
Fe     4  0.4391160000000 -0.3245790000000  0.4076010000000 1.0   3.86
Fe     4 -0.4391160000000  0.3245790000000 -0.0923990000000 1.0   3.86
Fe     4  0.3245790000000  0.4391160000000  0.1576010000000 1.0   3.86
Fe     4 -0.3245790000000 -0.4391160000000 -0.3423990000000 1.0   3.86
END
