TITL 4LFP-201124-113237-18e195 0.0186 153.676295 -6.07337660E+003 8.00000 8.10543 14 (Pc) n - 1
REM
REM Run started: Tue, 24 Nov 2020 13:19:32 +0000 in /scratch/scratch/uccabz1/launch_tmp/launcher_2020-11-24-11-32-35-777818
REM CASTEP 19.11| from code version Version unavailable
REM Functional Perdew Burke Ernzerhof Relativity Koelling-Harmon Dispersion off
REM Cut-off 300.0000 eV Grid scale 1.7500 Gmax 15.5288 1/A FBSC none
REM MP grid 4 4 2 Offset 0.000 0.000 0.000 No. kpts 8 Spacing 0.07
REM Total runtime: 6765.85 s
REM Overall efficiency: 94.4615 %
REM
REM 4LFP.cell (a815d5d25b9f25a0a111bfe3624e67be)
REM
REM compiler GCC version 4.9.2
REM options -cpp -iprefix /scratch/UCL/applications/gcc/4.9.2/bin/../lib/gcc/x86_64-unknown-linux-gnu/4.9.2/ -mtune=corei7 -march=x86-64 -g -O2
REM COMMAND_LINE
REM seed 282856103 -726492302 -836926798 -1628929527 851619818 -148253348 1467638993 402843856 -638836170 -1205554902 1056201414 118282623
REM
REM P 3|1.8|4|5|5|30:31:32(qc=5)
REM O 2|1.5|12|13|15|20:21(qc=5)
REM Li 1|1.3|8|9|10|10U:20(qc=5)
REM Fe 3|2.2|2.0|1.0|8|9|10|40:41:32(qc=5)
REM Fe d:4.0 
REM
CELL 1.54180    4.06663    4.68174    8.07176   89.76211   90.00000   90.00000
LATT -1
SFAC Li O  P  Fe 
Li     1 -0.5196640000000 -0.1578500000000  0.0719200000000 1.0  -0.05
Li     1  0.5196640000000  0.3421500000000 -0.4280800000000 1.0  -0.05
O      2 -0.7041390000000  0.0138810000000 -0.1196410000000 1.0   0.03
O      2 -0.7374230000000 -0.3693800000000 -0.3482790000000 1.0   0.03
O      2 -0.2786530000000  0.0034380000000 -0.3476200000000 1.0   0.03
O      2 -0.3181170000000 -0.3871860000000 -0.1205320000000 1.0   0.04
O      2  0.7041390000000  0.5138810000000  0.3803590000000 1.0   0.03
O      2  0.7374230000000  0.1306200000000  0.1517210000000 1.0   0.03
O      2  0.2786530000000  0.5034380000000  0.1523800000000 1.0   0.03
O      2  0.3181170000000  0.1128140000000  0.3794680000000 1.0   0.04
P      3 -0.5084950000000 -0.1829670000000 -0.2384910000000 1.0   0.01
P      3  0.5084950000000  0.3170330000000  0.2615090000000 1.0   0.01
Fe     4 -0.0012210000000 -0.1750110000000  0.4507670000000 1.0   3.90
Fe     4  0.0012210000000  0.3249890000000 -0.0492330000000 1.0   3.90
END
