TITL 4LFP_actual-201126-144938-0cc5e3 0.0486 319.251078 -1.21484007E+004 16.0000 16.2665 28 (Pc) n - 1
REM
REM Run started: Thu, 26 Nov 2020 18:52:35 +0000 in /scratch/scratch/uccabz1/launch_tmp/launcher_2020-11-26-14-49-36-743311
REM CASTEP 19.11| from code version Version unavailable
REM Functional Perdew Burke Ernzerhof Relativity Koelling-Harmon Dispersion off
REM Cut-off 300.0000 eV Grid scale 1.7500 Gmax 15.5288 1/A FBSC none
REM MP grid 4 2 2 Offset 0.000 0.000 0.000 No. kpts 4 Spacing 0.07
REM Total runtime: 15354.9 s
REM Overall efficiency: 76.4 %
REM
REM 4LFP_actual.cell (cb690b6ff984803026f07b083c6867a4)
REM
REM compiler GCC version 4.9.2
REM options -cpp -iprefix /scratch/UCL/applications/gcc/4.9.2/bin/../lib/gcc/x86_64-unknown-linux-gnu/4.9.2/ -mtune=corei7 -march=x86-64 -g -O2
REM COMMAND_LINE
REM seed -850346023 -234838167 -950884658 575999016 -326496905 1187753321 -612438204 -2075816020 1386493826 1769063303 1656218344 -200576832
REM
REM P 3|1.8|4|5|5|30:31:32(qc=5)
REM O 2|1.5|12|13|15|20:21(qc=5)
REM Li 1|1.3|8|9|10|10U:20(qc=5)
REM Fe 3|2.2|2.0|1.0|8|9|10|40:41:32(qc=5)
REM Fe d:4.0 
REM
CELL 1.54180    4.97588    7.59396    9.12937   90.00000  112.26346   90.00000
LATT -1
SFAC Li O  P  Fe 
Li     1  0.1004410000000 -0.2859490000000 -0.2383850000000 1.0  -0.03
Li     1  0.1004410000000  0.2859490000000  0.2616150000000 1.0  -0.03
Li     1 -0.3358330000000  0.4115030000000 -0.1342680000000 1.0  -0.03
Li     1 -0.3358330000000 -0.4115030000000  0.3657320000000 1.0  -0.03
O      2  0.0085540000000  0.4327480000000 -0.5933430000000 1.0   0.02
O      2  0.5650700000000  0.4659070000000 -0.4723280000000 1.0   0.03
O      2  0.2369990000000  0.6879570000000 -0.4066740000000 1.0   0.04
O      2  0.2803520000000  0.3829050000000 -0.3012740000000 1.0   0.05
O      2  0.0085540000000 -0.4327480000000 -0.0933430000000 1.0   0.02
O      2  0.5650700000000 -0.4659070000000  0.0276720000000 1.0   0.03
O      2  0.2369990000000 -0.6879570000000  0.0933260000000 1.0   0.04
O      2  0.2803520000000 -0.3829050000000  0.1987260000000 1.0   0.05
O      2 -0.2204800000000  0.1260950000000  0.2043730000000 1.0   0.05
O      2 -0.2023450000000 -0.1872290000000  0.2998650000000 1.0   0.03
O      2  0.0311390000000  0.0589400000000  0.4979320000000 1.0   0.05
O      2 -0.5111520000000  0.0479300000000  0.3728710000000 1.0   0.04
O      2 -0.2204800000000 -0.1260950000000 -0.2956270000000 1.0   0.05
O      2 -0.2023450000000  0.1872290000000 -0.2001350000000 1.0   0.03
O      2  0.0311390000000 -0.0589400000000 -0.0020680000000 1.0   0.05
O      2 -0.5111520000000 -0.0479300000000 -0.1271290000000 1.0   0.04
P      3  0.2749710000000  0.4929040000000 -0.4470720000000 1.0   0.01
P      3  0.2749710000000 -0.4929040000000  0.0529280000000 1.0   0.01
P      3 -0.2293880000000  0.0081210000000  0.3415300000000 1.0   0.01
P      3 -0.2293880000000 -0.0081210000000 -0.1584700000000 1.0   0.01
Fe     4 -0.1218590000000 -0.2709520000000  0.1016610000000 1.0   3.88
Fe     4 -0.1218590000000  0.2709520000000 -0.3983390000000 1.0   3.88
Fe     4  0.3874150000000  0.0948870000000  0.0304170000000 1.0   3.86
Fe     4  0.3874150000000 -0.0948870000000 -0.4695830000000 1.0   3.86
END
