TITL 4LFP-201124-090807-7b87d9 -0.0518 164.941283 -6.07222596E+003 8.00000 8.15177 14 (Cm) n - 1
REM
REM Run started: Tue, 24 Nov 2020 10:34:01 +0000 in /lustre/scratch/uccabz1/launch_tmp/launcher_2020-11-24-09-08-04-794193
REM CASTEP 20.1 from code version af48c487+ pr-geom-scf-spinfix Tue Jun 2 15:39:59 2020 +0100
REM Functional Perdew Burke Ernzerhof Relativity Koelling-Harmon Dispersion off
REM Cut-off 300.0000 eV Grid scale 1.7500 Gmax 15.5288 1/A FBSC none
REM MP grid 4 3 3 Offset 0.000 0.000 0.000 No. kpts 18 Spacing 0.07
REM Total runtime: 6176.02 s
REM Overall efficiency: 75.625 %
REM
REM 4LFP.cell (a815d5d25b9f25a0a111bfe3624e67be)
REM
REM compiler GCC version 4.9.2
REM options -cpp -iprefix /lustre/shared/ucl/apps/gcc/4.9.2/bin/../lib/gcc/x86_64-unknown-linux-gnu/4.9.2/ -mtune=corei7 -march=x86-64 -g -Og
REM COMMAND_LINE
REM seed 1219951476 -437189503 557150794 -714175693 637342276 -1935913084 -1443464950 675424827 -180485331 -518971025 1721754468 1677235930
REM
REM P 3|1.8|4|5|5|30:31:32(qc=5)
REM O 2|1.5|12|13|15|20:21(qc=5)
REM Li 1|1.3|8|9|10|10U:20(qc=5)
REM Fe 3|2.2|2.0|1.0|8|9|10|40:41:32(qc=5)
REM Fe d:4.0 
REM
CELL 1.54180    4.86070    7.13469    6.51719  124.85929  114.10550   86.28102
LATT -1
SFAC Li O  P  Fe 
Li     1  0.2563150000000  0.0481920000000  0.0000000000000 1.0  -0.03
Li     1  0.1069950000000  0.4432610000000  0.0000000000000 1.0  -0.04
O      2  0.0414970000000 -0.6163820000000 -0.4768880000000 1.0   0.04
O      2 -0.5162650000000 -0.6072620000000 -0.7206590000000 1.0   0.01
O      2 -0.0670620000000 -0.4027130000000 -0.7020730000000 1.0   0.02
O      2  0.5183850000000 -0.1394940000000  0.4768880000000 1.0   0.04
O      2  0.2043940000000  0.1133970000000  0.7206590000000 1.0   0.01
O      2  0.6350110000000  0.2993610000000  0.7020730000000 1.0   0.02
O      2 -0.5022010000000 -0.1599880000000  0.0000000000000 1.0   0.18
O      2 -0.2181790000000  0.1622620000000  0.0000000000000 1.0   0.00
P      3 -0.1878890000000 -0.5964360000000 -0.7027930000000 1.0   0.01
P      3  0.5149040000000  0.1063570000000  0.7027930000000 1.0   0.01
Fe     4  0.4784320000000  0.5701650000000  0.6653970000000 1.0   3.86
Fe     4 -0.1869650000000 -0.0952320000000 -0.6653970000000 1.0   3.86
END
