TITL 4LFP-201124-133036-d4281e 0.0043 167.398465 -6.07311512E+003 8.00000 8.13818 14 (C2) n - 1
REM
REM Run started: Tue, 24 Nov 2020 15:26:28 +0000 in /scratch/scratch/uccabz1/launch_tmp/launcher_2020-11-24-13-30-33-772999
REM CASTEP 19.11| from code version Version unavailable
REM Functional Perdew Burke Ernzerhof Relativity Koelling-Harmon Dispersion off
REM Cut-off 300.0000 eV Grid scale 1.7500 Gmax 15.5288 1/A FBSC none
REM MP grid 4 3 2 Offset 0.000 0.000 0.000 No. kpts 12 Spacing 0.07
REM Total runtime: 7541.4 s
REM Overall efficiency: 95.875 %
REM
REM 4LFP.cell (a815d5d25b9f25a0a111bfe3624e67be)
REM
REM compiler GCC version 4.9.2
REM options -cpp -iprefix /scratch/UCL/applications/gcc/4.9.2/bin/../lib/gcc/x86_64-unknown-linux-gnu/4.9.2/ -mtune=corei7 -march=x86-64 -g -O2
REM COMMAND_LINE
REM seed -288172246 -838593621 1190328873 1294566600 -1332237439 -1771069907 195193658 1203168991 -1481307243 -867291842 1887047825 438779512
REM
REM P 3|1.8|4|5|5|30:31:32(qc=5)
REM O 2|1.5|12|13|15|20:21(qc=5)
REM Li 1|1.3|8|9|10|10U:20(qc=5)
REM Fe 3|2.2|2.0|1.0|8|9|10|40:41:32(qc=5)
REM Fe d:4.0 
REM
CELL 1.54180    4.14804    5.33865    8.20634   89.42420   88.51771   67.13936
LATT -1
SFAC Li O  P  Fe 
Li     1  0.3413620000000 -0.6827240000000  0.0000000000000 1.0  -0.03
Li     1 -0.6586790000000  0.3173580000000  0.5000000000000 1.0  -0.03
O      2 -0.2818310000000  0.1640330000000 -0.3570450000000 1.0   0.05
O      2 -0.4993520000000  0.5480000000000 -0.1436040000000 1.0   0.05
O      2  0.1167960000000  0.1645350000000 -0.1445650000000 1.0   0.05
O      2 -0.0495930000000  0.5473560000000 -0.3589680000000 1.0   0.05
O      2  0.1177970000000  0.1640330000000  0.3570450000000 1.0   0.05
O      2 -0.0486480000000  0.5480000000000  0.1436040000000 1.0   0.05
O      2 -0.2813310000000  0.1645350000000  0.1445650000000 1.0   0.05
O      2 -0.4977630000000  0.5473560000000  0.3589680000000 1.0   0.05
P      3 -0.1819670000000  0.3633040000000 -0.2508010000000 1.0   0.01
P      3 -0.1813370000000  0.3633040000000  0.2508010000000 1.0   0.01
Fe     4  0.0874920000000 -0.1762560000000  0.2531680000000 1.0   3.81
Fe     4  0.0887640000000 -0.1762560000000 -0.2531680000000 1.0   3.81
END
