TITL 4LFP-201124-143720-8b2491 0.0153 148.076917 -6.07402338E+003 8.00000 8.13629 14 (C2/c) n - 1
REM
REM Run started: Tue, 24 Nov 2020 15:26:55 +0000 in /scratch/scratch/uccabz1/launch_tmp/launcher_2020-11-24-14-37-17-913426
REM CASTEP 19.11| from code version Version unavailable
REM Functional Perdew Burke Ernzerhof Relativity Koelling-Harmon Dispersion off
REM Cut-off 300.0000 eV Grid scale 1.7500 Gmax 15.5288 1/A FBSC none
REM MP grid 3 4 4 Offset 0.000 0.000 0.000 No. kpts 16 Spacing 0.07
REM Total runtime: 3099.43 s
REM Overall efficiency: 90.5714 %
REM
REM 4LFP.cell (a815d5d25b9f25a0a111bfe3624e67be)
REM
REM compiler GCC version 4.9.2
REM options -cpp -iprefix /scratch/UCL/applications/gcc/4.9.2/bin/../lib/gcc/x86_64-unknown-linux-gnu/4.9.2/ -mtune=corei7 -march=x86-64 -g -O2
REM COMMAND_LINE
REM seed 1313661519 1165566367 -2017409860 1974082505 -369624382 1729843013 -687991287 1027165358 1430438105 -761333222 153703128 548042726
REM
REM P 3|1.8|4|5|5|30:31:32(qc=5)
REM O 2|1.5|12|13|15|20:21(qc=5)
REM Li 1|1.3|8|9|10|10U:20(qc=5)
REM Fe 3|2.2|2.0|1.0|8|9|10|40:41:32(qc=5)
REM Fe d:4.0 
REM
CELL 1.54180    6.18756    5.74110    5.74110  123.62443  103.37106  103.37106
LATT -1
SFAC Li O  P  Fe 
Li     1  0.5095390000000  0.0180680000000 -0.4287460000000 1.0  -0.04
Li     1  0.0095390000000  0.0712540000000  0.5180680000000 1.0  -0.04
O      2 -0.1710120000000 -0.6646570000000 -0.2250560000000 1.0   0.03
O      2  0.1493590000000 -0.3592750000000 -0.2829480000000 1.0   0.04
O      2 -0.1276620000000 -0.1315940000000 -0.0553810000000 1.0   0.04
O      2  0.1932730000000 -0.1882290000000  0.2508910000000 1.0   0.03
O      2 -0.6710120000000  0.2749440000000 -0.1646570000000 1.0   0.03
O      2 -0.3506410000000  0.2170520000000  0.1407250000000 1.0   0.04
O      2 -0.6276620000000  0.4446190000000  0.3684060000000 1.0   0.04
O      2 -0.3067270000000  0.7508910000000  0.3117710000000 1.0   0.03
P      3  0.0111680000000 -0.3332470000000 -0.0803340000000 1.0   0.01
P      3 -0.4888320000000  0.4196660000000  0.1667530000000 1.0   0.01
Fe     4  0.0109670000000  0.3833670000000  0.2022740000000 1.0   3.89
Fe     4  0.5109670000000 -0.2977260000000 -0.1166330000000 1.0   3.89
END
