TITL 4LFP_actual-201126-133511-4afa0b 0.0070 320.017708 -1.21475143E+004 16.0000 16.3464 28 (P41) n - 1
REM
REM Run started: Thu, 26 Nov 2020 14:06:43 +0000 in /lustre/scratch/uccabz1/launch_tmp/launcher_2020-11-26-13-35-03-783235
REM CASTEP 20.1 from code version af48c487+ pr-geom-scf-spinfix Tue Jun 2 15:39:59 2020 +0100
REM Functional Perdew Burke Ernzerhof Relativity Koelling-Harmon Dispersion off
REM Cut-off 300.0000 eV Grid scale 1.7500 Gmax 15.5288 1/A FBSC none
REM MP grid 3 3 2 Offset 0.000 0.000 0.000 No. kpts 3 Spacing 0.07
REM Total runtime: 1999.35 s
REM Overall efficiency: 71.5714 %
REM
REM 4LFP_actual.cell (cb690b6ff984803026f07b083c6867a4)
REM
REM compiler GCC version 4.9.2
REM options -cpp -iprefix /lustre/shared/ucl/apps/gcc/4.9.2/bin/../lib/gcc/x86_64-unknown-linux-gnu/4.9.2/ -mtune=corei7 -march=x86-64 -g -Og
REM COMMAND_LINE
REM seed -1039486983 -178372889 -485661374 -1259157524 -215520889 -231063196 -1265037138 454727361 -184430656 -1157898190 2146288728 -1951626892
REM
REM P 3|1.8|4|5|5|30:31:32(qc=5)
REM O 2|1.5|12|13|15|20:21(qc=5)
REM Li 1|1.3|8|9|10|10U:20(qc=5)
REM Fe 3|2.2|2.0|1.0|8|9|10|40:41:32(qc=5)
REM Fe d:4.0 
REM
CELL 1.54180    5.68388    5.68388    9.90567   90.00000   90.00000   90.00000
LATT -1
SFAC Li O  P  Fe 
Li     1 -0.2777510000000  0.2418490000000 -0.4505100000000 1.0  -0.03
Li     1  0.2777510000000 -0.2418490000000  0.0494900000000 1.0  -0.03
Li     1  0.2418490000000  0.2777510000000  0.2994900000000 1.0  -0.03
Li     1 -0.2418490000000 -0.2777510000000 -0.2005100000000 1.0  -0.03
O      2 -0.0748230000000  0.2242570000000  0.3712430000000 1.0   0.02
O      2 -0.2737680000000 -0.0566090000000  0.1955450000000 1.0   0.05
O      2 -0.5063240000000  0.1332980000000  0.3943640000000 1.0   0.02
O      2 -0.3616950000000  0.3667840000000  0.1916090000000 1.0   0.06
O      2  0.0748230000000 -0.2242570000000 -0.1287570000000 1.0   0.02
O      2  0.2737680000000  0.0566090000000 -0.3044550000000 1.0   0.05
O      2  0.5063240000000 -0.1332980000000 -0.1056360000000 1.0   0.02
O      2  0.3616950000000 -0.3667840000000 -0.3083910000000 1.0   0.06
O      2  0.2242570000000  0.0748230000000  0.1212430000000 1.0   0.02
O      2 -0.0566090000000  0.2737680000000 -0.0544550000000 1.0   0.05
O      2  0.1332980000000  0.5063240000000  0.1443640000000 1.0   0.02
O      2  0.3667840000000  0.3616950000000 -0.0583910000000 1.0   0.06
O      2 -0.2242570000000 -0.0748230000000 -0.3787570000000 1.0   0.02
O      2  0.0566090000000 -0.2737680000000 -0.5544550000000 1.0   0.05
O      2 -0.1332980000000 -0.5063240000000 -0.3556360000000 1.0   0.02
O      2 -0.3667840000000 -0.3616950000000 -0.5583910000000 1.0   0.06
P      3 -0.2989810000000  0.1627160000000  0.2916190000000 1.0   0.01
P      3  0.2989810000000 -0.1627160000000 -0.2083810000000 1.0   0.01
P      3  0.1627160000000  0.2989810000000  0.0416190000000 1.0   0.01
P      3 -0.1627160000000 -0.2989810000000 -0.4583810000000 1.0   0.01
Fe     4 -0.1411120000000 -0.3595700000000  0.2597990000000 1.0   3.87
Fe     4  0.1411120000000  0.3595700000000 -0.2402010000000 1.0   3.87
Fe     4 -0.3595700000000  0.1411120000000  0.0097990000000 1.0   3.87
Fe     4  0.3595700000000 -0.1411120000000 -0.4902010000000 1.0   3.87
END
