TITL 4LFP-201124-130119-851260 -0.0325 163.880864 -6.06662207E+003 5.95758 6.39621 14 (Cm) n - 1
REM
REM Run started: Tue, 24 Nov 2020 14:14:26 +0000 in /lustre/scratch/uccabz1/launch_tmp/launcher_2020-11-24-12-59-37-795366
REM CASTEP 20.1 from code version af48c487+ pr-geom-scf-spinfix Tue Jun 2 15:39:59 2020 +0100
REM Functional Perdew Burke Ernzerhof Relativity Koelling-Harmon Dispersion off
REM Cut-off 300.0000 eV Grid scale 1.7500 Gmax 15.5288 1/A FBSC none
REM MP grid 4 3 3 Offset 0.000 0.000 0.000 No. kpts 12 Spacing 0.07
REM Total runtime: 4747.17 s
REM Overall efficiency: 71.2 %
REM
REM 4LFP.cell (a815d5d25b9f25a0a111bfe3624e67be)
REM
REM compiler GCC version 4.9.2
REM options -cpp -iprefix /lustre/shared/ucl/apps/gcc/4.9.2/bin/../lib/gcc/x86_64-unknown-linux-gnu/4.9.2/ -mtune=corei7 -march=x86-64 -g -Og
REM COMMAND_LINE
REM seed -1580205326 1324315780 453897039 -1029052380 948998773 257824375 -231450292 1604737233 -1679498109 918693995 959597754 1247049402
REM
REM P 3|1.8|4|5|5|30:31:32(qc=5)
REM O 2|1.5|12|13|15|20:21(qc=5)
REM Li 1|1.3|8|9|10|10U:20(qc=5)
REM Fe 3|2.2|2.0|1.0|8|9|10|40:41:32(qc=5)
REM Fe d:4.0 
REM
CELL 1.54180    5.32564    6.57353    6.57353  107.16561  113.31536  113.31536
LATT -1
SFAC Li O  P  Fe 
Li     1 -0.2965840000000  0.5064540000000  0.0077620000000 1.0  -0.01
Li     1 -0.2965840000000  0.0077620000000  0.5064540000000 1.0  -0.01
O      2  0.5645450000000  0.7425570000000 -0.0409210000000 1.0  -0.03
O      2  0.0004380000000 -0.0444040000000 -0.2603700000000 1.0  -0.03
O      2  0.0090340000000  0.4687360000000  0.2497090000000 1.0   0.04
O      2 -0.4236060000000  0.2455220000000 -0.5350340000000 1.0   0.03
O      2  0.5645450000000 -0.0409210000000  0.7425570000000 1.0  -0.03
O      2  0.0004380000000 -0.2603700000000 -0.0444040000000 1.0  -0.03
O      2  0.0090340000000  0.2497090000000  0.4687360000000 1.0   0.04
O      2 -0.4236060000000 -0.5350340000000  0.2455220000000 1.0   0.03
P      3 -0.1659440000000  0.4003580000000  0.4003580000000 1.0   0.00
P      3 -0.1866230000000 -0.1188810000000 -0.1188810000000 1.0   0.03
Fe     4  0.2539300000000 -0.1802560000000 -0.1802560000000 1.0   2.29
Fe     4  0.2491830000000  0.3133510000000  0.3133510000000 1.0   3.65
END
