TITL 4LFP_actual-201126-213836-db1095 -0.0119 358.738931 -1.21473299E+004 16.0000 16.4026 28 (Pm) n - 1
REM
REM Run started: Fri, 27 Nov 2020 01:09:31 +0000 in /lustre/scratch/uccabz1/launch_tmp/launcher_2020-11-26-21-38-18-109710
REM CASTEP 20.1 from code version af48c487+ pr-geom-scf-spinfix Tue Jun 2 15:39:59 2020 +0100
REM Functional Perdew Burke Ernzerhof Relativity Koelling-Harmon Dispersion off
REM Cut-off 300.0000 eV Grid scale 1.7500 Gmax 15.5288 1/A FBSC none
REM MP grid 4 2 2 Offset 0.000 0.000 0.000 No. kpts 4 Spacing 0.07
REM Total runtime: 12902.9 s
REM Overall efficiency: 81.3 %
REM
REM 4LFP_actual.cell (cb690b6ff984803026f07b083c6867a4)
REM
REM compiler GCC version 4.9.2
REM options -cpp -iprefix /lustre/shared/ucl/apps/gcc/4.9.2/bin/../lib/gcc/x86_64-unknown-linux-gnu/4.9.2/ -mtune=corei7 -march=x86-64 -g -Og
REM COMMAND_LINE
REM seed 1067682593 1121959041 2036763497 -250766470 -994267834 1714538381 -616667694 -439663924 -107277952 68558588 1292233585 1770578443
REM
REM P 3|1.8|4|5|5|30:31:32(qc=5)
REM O 2|1.5|12|13|15|20:21(qc=5)
REM Li 1|1.3|8|9|10|10U:20(qc=5)
REM Fe 3|2.2|2.0|1.0|8|9|10|40:41:32(qc=5)
REM Fe d:4.0 
REM
CELL 1.54180    4.95330    7.82661    9.78008   90.00000   90.00000  108.88547
LATT -1
SFAC Li O  P  Fe 
Li     1 -0.0183110000000 -0.3848220000000 -0.3228280000000 1.0  -0.04
Li     1 -0.0183110000000 -0.3848220000000  0.3228280000000 1.0  -0.04
Li     1 -0.3672570000000  0.1374200000000 -0.5000000000000 1.0  -0.04
Li     1 -0.4223920000000  0.0130150000000  0.0000000000000 1.0  -0.05
O      2  0.6903400000000  0.3600260000000  0.3649930000000 1.0   0.05
O      2  0.9153840000000  0.5005680000000  0.1484410000000 1.0   0.05
O      2  1.0188620000000  0.2254540000000  0.2422420000000 1.0   0.06
O      2  0.5387090000000  0.1899280000000  0.1345160000000 1.0   0.05
O      2  0.6903400000000  0.3600260000000 -0.3649930000000 1.0   0.05
O      2  0.9153840000000  0.5005680000000 -0.1484410000000 1.0   0.05
O      2  1.0188620000000  0.2254540000000 -0.2422420000000 1.0   0.06
O      2  0.5387090000000  0.1899280000000 -0.1345160000000 1.0   0.05
O      2 -0.1317870000000 -0.1775700000000 -0.2966130000000 1.0   0.03
O      2 -0.5184790000000 -0.0386410000000 -0.3596210000000 1.0   0.04
O      2 -0.6307280000000 -0.3790700000000 -0.3554810000000 1.0   0.05
O      2 -0.5524850000000 -0.1952830000000 -0.1350740000000 1.0   0.04
O      2 -0.1317870000000 -0.1775700000000  0.2966130000000 1.0   0.03
O      2 -0.5184790000000 -0.0386410000000  0.3596210000000 1.0   0.04
O      2 -0.6307280000000 -0.3790700000000  0.3554810000000 1.0   0.05
O      2 -0.5524850000000 -0.1952830000000  0.1350740000000 1.0   0.04
P      3  0.7886110000000  0.3143040000000  0.2189680000000 1.0   0.02
P      3  0.7886110000000  0.3143040000000 -0.2189680000000 1.0   0.02
P      3 -0.4540620000000 -0.1969300000000 -0.2876930000000 1.0   0.01
P      3 -0.4540620000000 -0.1969300000000  0.2876930000000 1.0   0.01
Fe     4  0.1968150000000  0.0373180000000  0.2333310000000 1.0   3.83
Fe     4  0.1968150000000  0.0373180000000 -0.2333310000000 1.0   3.83
Fe     4  0.1798620000000 -0.3762060000000  0.0000000000000 1.0   3.84
Fe     4  0.4846850000000  0.4741090000000 -0.5000000000000 1.0   3.84
END
