TITL 4LFP_actual-201126-165000-fa5884 0.0051 285.159161 -1.21489265E+004 16.0000 16.2474 28 (P212121) n - 1
REM
REM Run started: Thu, 26 Nov 2020 18:09:09 +0000 in /scratch/scratch/uccabz1/launch_tmp/launcher_2020-11-26-16-49-58-375182
REM CASTEP 19.11| from code version Version unavailable
REM Functional Perdew Burke Ernzerhof Relativity Koelling-Harmon Dispersion off
REM Cut-off 300.0000 eV Grid scale 1.7500 Gmax 15.5288 1/A FBSC none
REM MP grid 3 3 2 Offset 0.000 0.000 0.000 No. kpts 4 Spacing 0.07
REM Total runtime: 5084.58 s
REM Overall efficiency: 78.4286 %
REM
REM 4LFP_actual.cell (cb690b6ff984803026f07b083c6867a4)
REM
REM compiler GCC version 4.9.2
REM options -cpp -iprefix /scratch/UCL/applications/gcc/4.9.2/bin/../lib/gcc/x86_64-unknown-linux-gnu/4.9.2/ -mtune=corei7 -march=x86-64 -g -O2
REM COMMAND_LINE
REM seed -1593421249 1975551427 -1829349602 -1983806018 -484039486 -1954870053 -265423719 969509284 -178440283 368295526 393812622 -668781298
REM
REM P 3|1.8|4|5|5|30:31:32(qc=5)
REM O 2|1.5|12|13|15|20:21(qc=5)
REM Li 1|1.3|8|9|10|10U:20(qc=5)
REM Fe 3|2.2|2.0|1.0|8|9|10|40:41:32(qc=5)
REM Fe d:4.0 
REM
CELL 1.54180    4.89875    6.13554    9.48744   90.00000   90.00000   90.00000
LATT -1
SFAC Li O  P  Fe 
Li     1 -0.4805550000000  0.4874850000000 -0.0845470000000 1.0  -0.03
Li     1  0.0194450000000  0.0125150000000  0.0845470000000 1.0  -0.03
Li     1 -0.0194450000000 -0.4874850000000  0.4154530000000 1.0  -0.03
Li     1  0.4805550000000 -0.0125150000000 -0.4154530000000 1.0  -0.03
O      2 -0.3964780000000  0.0132160000000  0.0903250000000 1.0   0.05
O      2 -0.3398330000000  0.2008670000000 -0.1403130000000 1.0   0.04
O      2 -0.3377790000000 -0.2159280000000 -0.1299470000000 1.0   0.03
O      2 -0.7801410000000 -0.0063490000000 -0.1014760000000 1.0   0.04
O      2  0.1035220000000 -0.5132160000000 -0.0903250000000 1.0   0.05
O      2  0.1601670000000 -0.7008670000000  0.1403130000000 1.0   0.04
O      2  0.1622210000000 -0.2840720000000  0.1299470000000 1.0   0.03
O      2 -0.2801410000000 -0.4936510000000  0.1014760000000 1.0   0.04
O      2 -0.1035220000000 -0.0132160000000  0.5903250000000 1.0   0.05
O      2 -0.1601670000000 -0.2008670000000  0.3596870000000 1.0   0.04
O      2 -0.1622210000000  0.2159280000000  0.3700530000000 1.0   0.03
O      2  0.2801410000000  0.0063490000000  0.3985240000000 1.0   0.04
O      2  0.3964780000000  0.5132160000000 -0.5903250000000 1.0   0.05
O      2  0.3398330000000  0.7008670000000 -0.3596870000000 1.0   0.04
O      2  0.3377790000000  0.2840720000000 -0.3700530000000 1.0   0.03
O      2  0.7801410000000  0.4936510000000 -0.3985240000000 1.0   0.04
P      3 -0.4676220000000 -0.0046020000000 -0.0713030000000 1.0   0.02
P      3  0.0323780000000 -0.4953980000000  0.0713030000000 1.0   0.02
P      3 -0.0323780000000  0.0046020000000  0.4286970000000 1.0   0.02
P      3  0.4676220000000  0.4953980000000 -0.4286970000000 1.0   0.02
Fe     4 -0.4883770000000  0.2924340000000  0.2482570000000 1.0   3.85
Fe     4  0.0116230000000  0.2075660000000 -0.2482570000000 1.0   3.85
Fe     4 -0.0116230000000 -0.2924340000000 -0.2517430000000 1.0   3.85
Fe     4  0.4883770000000 -0.2075660000000  0.2517430000000 1.0   3.85
END
