TITL 4LFP-201124-131318-8be105 -0.2713 157.188597 -6.07409740E+003 8.00000 8.09643 14 (P-1) n - 1
REM
REM Run started: Tue, 24 Nov 2020 15:22:10 +0000 in /scratch/scratch/uccabz1/launch_tmp/launcher_2020-11-24-13-13-15-253290
REM CASTEP 19.11| from code version Version unavailable
REM Functional Perdew Burke Ernzerhof Relativity Koelling-Harmon Dispersion off
REM Cut-off 300.0000 eV Grid scale 1.7500 Gmax 15.5288 1/A FBSC none
REM MP grid 3 3 3 Offset 0.000 0.000 0.000 No. kpts 14 Spacing 0.07
REM Total runtime: 8852.86 s
REM Overall efficiency: 94.8333 %
REM
REM 4LFP.cell (a815d5d25b9f25a0a111bfe3624e67be)
REM
REM compiler GCC version 4.9.2
REM options -cpp -iprefix /scratch/UCL/applications/gcc/4.9.2/bin/../lib/gcc/x86_64-unknown-linux-gnu/4.9.2/ -mtune=corei7 -march=x86-64 -g -O2
REM COMMAND_LINE
REM seed 180399674 2032975324 -187153758 -1727226502 1688830978 1381199660 -1230919855 -874778697 -133116150 -498539890 752351170 1418861980
REM
REM P 3|1.8|4|5|5|30:31:32(qc=5)
REM O 2|1.5|12|13|15|20:21(qc=5)
REM Li 1|1.3|8|9|10|10U:20(qc=5)
REM Fe 3|2.2|2.0|1.0|8|9|10|40:41:32(qc=5)
REM Fe d:4.0 
REM
CELL 1.54180    5.03497    5.48517    6.53585   61.41357   93.39705   97.37596
LATT -1
SFAC Li O  P  Fe 
Li     1  0.1716580000000  0.2627950000000  0.3927330000000 1.0  -0.04
Li     1 -0.1716580000000 -0.2627950000000 -0.3927330000000 1.0  -0.04
O      2  0.2993370000000  0.1706060000000  0.1641430000000 1.0   0.04
O      2  0.1788470000000 -0.3149910000000  0.1829150000000 1.0   0.03
O      2  0.6256210000000 -0.2031960000000  0.3336130000000 1.0   0.04
O      2  0.2002110000000 -0.2387310000000  0.5437210000000 1.0   0.03
O      2 -0.2993370000000 -0.1706060000000 -0.1641430000000 1.0   0.04
O      2 -0.1788470000000  0.3149910000000 -0.1829150000000 1.0   0.03
O      2 -0.6256210000000  0.2031960000000 -0.3336130000000 1.0   0.04
O      2 -0.2002110000000  0.2387310000000 -0.5437210000000 1.0   0.03
P      3  0.3259390000000 -0.1512400000000  0.3032700000000 1.0   0.01
P      3 -0.3259390000000  0.1512400000000 -0.3032700000000 1.0   0.01
Fe     4  0.2448500000000  0.4069000000000 -0.1657160000000 1.0   3.87
Fe     4 -0.2448500000000 -0.4069000000000  0.1657160000000 1.0   3.87
END
