TITL 4LFP-201124-131648-9526b0 -0.0103 159.748633 -6.07352227E+003 8.00000 8.08385 14 (P21) n - 1
REM
REM Run started: Tue, 24 Nov 2020 14:16:24 +0000 in /lustre/scratch/uccabz1/launch_tmp/launcher_2020-11-24-13-16-46-308676
REM CASTEP 20.1 from code version af48c487+ pr-geom-scf-spinfix Tue Jun 2 15:39:59 2020 +0100
REM Functional Perdew Burke Ernzerhof Relativity Koelling-Harmon Dispersion off
REM Cut-off 300.0000 eV Grid scale 1.7500 Gmax 15.5288 1/A FBSC none
REM MP grid 3 3 3 Offset 0.000 0.000 0.000 No. kpts 10 Spacing 0.07
REM Total runtime: 3736.43 s
REM Overall efficiency: 71.375 %
REM
REM 4LFP.cell (a815d5d25b9f25a0a111bfe3624e67be)
REM
REM compiler GCC version 4.9.2
REM options -cpp -iprefix /lustre/shared/ucl/apps/gcc/4.9.2/bin/../lib/gcc/x86_64-unknown-linux-gnu/4.9.2/ -mtune=corei7 -march=x86-64 -g -Og
REM COMMAND_LINE
REM seed -482276026 860443474 1518588105 711002841 -588973207 1018824889 -1229242225 -2137522266 1468466146 -929764595 -906724215 609962546
REM
REM P 3|1.8|4|5|5|30:31:32(qc=5)
REM O 2|1.5|12|13|15|20:21(qc=5)
REM Li 1|1.3|8|9|10|10U:20(qc=5)
REM Fe 3|2.2|2.0|1.0|8|9|10|40:41:32(qc=5)
REM Fe d:4.0 
REM
CELL 1.54180    5.02163    6.12653    5.26034   90.00000   99.21008   90.00000
LATT -1
SFAC Li O  P  Fe 
Li     1 -0.2843700000000 -0.2357410000000 -0.4059620000000 1.0  -0.04
Li     1  0.2843700000000  0.2642590000000  0.4059620000000 1.0  -0.04
O      2 -0.3700930000000 -0.4547870000000 -0.1484980000000 1.0   0.04
O      2 -0.0954730000000 -0.6796200000000  0.2032760000000 1.0   0.04
O      2 -0.1341060000000 -0.2763740000000  0.2741560000000 1.0   0.04
O      2 -0.5549280000000 -0.5014870000000  0.2636860000000 1.0   0.03
O      2  0.3700930000000  0.0452130000000  0.1484980000000 1.0   0.04
O      2  0.0954730000000 -0.1796200000000 -0.2032760000000 1.0   0.04
O      2  0.1341060000000  0.2236260000000 -0.2741560000000 1.0   0.04
O      2  0.5549280000000 -0.0014870000000 -0.2636860000000 1.0   0.03
P      3 -0.2910160000000 -0.4795180000000  0.1482030000000 1.0   0.00
P      3  0.2910160000000  0.0204820000000 -0.1482030000000 1.0   0.00
Fe     4 -0.1826020000000  0.0141100000000  0.1000430000000 1.0   3.88
Fe     4  0.1826020000000 -0.4858900000000 -0.1000430000000 1.0   3.88
END
