TITL 4LFP-201124-084051-b9f39c -0.0616 164.544559 -6.07013364E+003 -4.00000 5.46406 14 (P-1) n - 1
REM
REM Run started: Tue, 24 Nov 2020 11:44:17 +0000 in /lustre/scratch/uccabz1/launch_tmp/launcher_2020-11-24-08-40-45-486901
REM CASTEP 20.1 from code version af48c487+ pr-geom-scf-spinfix Tue Jun 2 15:39:59 2020 +0100
REM Functional Perdew Burke Ernzerhof Relativity Koelling-Harmon Dispersion off
REM Cut-off 300.0000 eV Grid scale 1.7500 Gmax 15.5288 1/A FBSC none
REM MP grid 5 4 2 Offset 0.000 0.000 0.000 No. kpts 20 Spacing 0.07
REM Total runtime: 11369.7 s
REM Overall efficiency: 87.4545 %
REM
REM 4LFP.cell (a815d5d25b9f25a0a111bfe3624e67be)
REM
REM compiler GCC version 4.9.2
REM options -cpp -iprefix /lustre/shared/ucl/apps/gcc/4.9.2/bin/../lib/gcc/x86_64-unknown-linux-gnu/4.9.2/ -mtune=corei7 -march=x86-64 -g -Og
REM COMMAND_LINE
REM seed 2362145 484538162 1537789728 540752565 -748706209 1430897839 1410770644 -735669440 -776674867 2019033159 -158024668 1980874982
REM
REM P 3|1.8|4|5|5|30:31:32(qc=5)
REM O 2|1.5|12|13|15|20:21(qc=5)
REM Li 1|1.3|8|9|10|10U:20(qc=5)
REM Fe 3|2.2|2.0|1.0|8|9|10|40:41:32(qc=5)
REM Fe d:4.0 
REM
CELL 1.54180    4.93075    5.37936    9.16337   73.48244   99.72239  135.01407
LATT -1
SFAC Li O  P  Fe 
Li     1 -0.0203870000000 -0.0076060000000  0.2889280000000 1.0   0.03
Li     1  0.0203870000000  0.0076060000000 -0.2889280000000 1.0   0.03
O      2 -0.1514860000000  0.6150980000000 -0.1401190000000 1.0  -0.00
O      2 -0.4605040000000  0.1668330000000 -0.2996860000000 1.0  -0.03
O      2  0.1015920000000  0.3229720000000 -0.1540300000000 1.0  -0.00
O      2  0.1514860000000 -0.6150980000000  0.1401190000000 1.0  -0.00
O      2  0.4605040000000 -0.1668330000000  0.2996860000000 1.0  -0.03
O      2 -0.1015920000000 -0.3229720000000  0.1540300000000 1.0  -0.00
O      2 -0.5000000000000  0.0000000000000  0.0000000000000 1.0   0.01
O      2  0.0000000000000  0.0000000000000  0.5000000000000 1.0  -0.15
P      3 -0.2404840000000  0.2868560000000 -0.1572630000000 1.0  -0.01
P      3  0.2404840000000 -0.2868560000000  0.1572630000000 1.0  -0.01
Fe     4 -0.5000000000000 -0.5000000000000 -0.5000000000000 1.0  -3.84
Fe     4  0.5000000000000  0.5000000000000  0.0000000000000 1.0  -0.01
END
