TITL 4LFP_actual-201127-012555-9f8b75 0.0354 332.073701 -1.21422610E+004 16.0000 16.2629 28 (Fmm2) n - 1
REM
REM Run started: Fri, 27 Nov 2020 05:39:26 +0000 in /lustre/scratch/uccabz1/launch_tmp/launcher_2020-11-27-01-25-52-150797
REM CASTEP 20.1 from code version af48c487+ pr-geom-scf-spinfix Tue Jun 2 15:39:59 2020 +0100
REM Functional Perdew Burke Ernzerhof Relativity Koelling-Harmon Dispersion off
REM Cut-off 300.0000 eV Grid scale 1.7500 Gmax 15.5288 1/A FBSC none
REM MP grid 3 3 3 Offset 0.000 0.000 0.000 No. kpts 8 Spacing 0.07
REM Total runtime: 16769 s
REM Overall efficiency: 78.0909 %
REM
REM 4LFP_actual.cell (cb690b6ff984803026f07b083c6867a4)
REM
REM compiler GCC version 4.9.2
REM options -cpp -iprefix /lustre/shared/ucl/apps/gcc/4.9.2/bin/../lib/gcc/x86_64-unknown-linux-gnu/4.9.2/ -mtune=corei7 -march=x86-64 -g -Og
REM COMMAND_LINE
REM seed 894807732 1067682593 -437338651 947595656 959264889 984501207 -1756882840 1388006309 -87772457 -2025445870 -1840362538 1244793325
REM
REM P 3|1.8|4|5|5|30:31:32(qc=5)
REM O 2|1.5|12|13|15|20:21(qc=5)
REM Li 1|1.3|8|9|10|10U:20(qc=5)
REM Fe 3|2.2|2.0|1.0|8|9|10|40:41:32(qc=5)
REM Fe d:4.0 
REM
CELL 1.54180    7.28049    7.28049    8.09599  116.49299  116.49299   90.45199
LATT -1
SFAC Li O  P  Fe 
Li     1  0.3536350000000 -0.7780870000000 -0.4244520000000 1.0  -0.06
Li     1 -0.2219130000000  0.6463650000000  0.4244520000000 1.0  -0.06
Li     1  0.4954020000000 -0.4954020000000 -0.5000000000000 1.0  -0.02
Li     1 -0.0045980000000 -0.9954020000000 -0.5000000000000 1.0  -0.02
O      2 -0.1586730000000  0.1160900000000  0.3082800000000 1.0   0.02
O      2 -0.4983040000000  0.1379780000000  0.3576520000000 1.0   0.03
O      2 -0.3963540000000  0.3510520000000  0.2246320000000 1.0   0.03
O      2 -0.1160900000000 -0.8413270000000 -0.3082800000000 1.0   0.02
O      2 -0.1379780000000 -0.5016960000000 -0.3576520000000 1.0   0.03
O      2 -0.3510520000000 -0.6036460000000 -0.2246320000000 1.0   0.03
O      2  0.1921900000000  0.4669530000000  0.3082800000000 1.0   0.02
O      2  0.2196740000000  0.8559550000000  0.3576520000000 1.0   0.03
O      2 -0.1264200000000  0.6209860000000  0.2246320000000 1.0   0.03
O      2  0.5330470000000 -0.1921900000000 -0.3082800000000 1.0   0.02
O      2  0.1440450000000 -0.2196740000000 -0.3576520000000 1.0   0.03
O      2  0.3790140000000  0.1264200000000 -0.2246320000000 1.0   0.03
O      2 -0.4578310000000  0.7169390000000  0.2591080000000 1.0   0.23
O      2  0.2830610000000 -0.5421690000000 -0.2591080000000 1.0   0.23
O      2  0.0542230000000 -0.4617220000000  0.0000000000000 1.0   0.02
O      2  0.4617220000000 -0.0542230000000  0.0000000000000 1.0   0.02
P      3 -0.3846440000000  0.1498730000000  0.2407890000000 1.0   0.01
P      3 -0.1498730000000 -0.6153560000000 -0.2407890000000 1.0   0.01
P      3  0.0909160000000  0.6254330000000  0.2407890000000 1.0   0.01
P      3  0.3745670000000 -0.0909160000000 -0.2407890000000 1.0   0.01
Fe     4 -0.4247650000000 -0.0542210000000 -0.4789850000000 1.0   3.84
Fe     4  0.0542210000000  0.4247650000000  0.4789850000000 1.0   3.84
Fe     4 -0.4438690000000  0.4438690000000  0.0000000000000 1.0   3.84
Fe     4  0.3041930000000 -0.3041930000000  0.0000000000000 1.0   3.78
END
