TITL 4LFP_actual-201126-232017-7396d6 -0.0060 304.859771 -1.21473813E+004 16.0000 16.2975 28 (P43) n - 1
REM
REM Run started: Thu, 26 Nov 2020 23:57:18 +0000 in /lustre/scratch/uccabz1/launch_tmp/launcher_2020-11-26-23-20-08-320981
REM CASTEP 20.1 from code version af48c487+ pr-geom-scf-spinfix Tue Jun 2 15:39:59 2020 +0100
REM Functional Perdew Burke Ernzerhof Relativity Koelling-Harmon Dispersion off
REM Cut-off 300.0000 eV Grid scale 1.7500 Gmax 15.5288 1/A FBSC none
REM MP grid 3 3 2 Offset 0.000 0.000 0.000 No. kpts 3 Spacing 0.07
REM Total runtime: 2324.7 s
REM Overall efficiency: 71.7143 %
REM
REM 4LFP_actual.cell (cb690b6ff984803026f07b083c6867a4)
REM
REM compiler GCC version 4.9.2
REM options -cpp -iprefix /lustre/shared/ucl/apps/gcc/4.9.2/bin/../lib/gcc/x86_64-unknown-linux-gnu/4.9.2/ -mtune=corei7 -march=x86-64 -g -Og
REM COMMAND_LINE
REM seed 1666231539 819357264 -709951809 -880823600 376453048 -327444075 1354624138 814228514 1651097394 1313044988 -1679407915 -2078497601
REM
REM P 3|1.8|4|5|5|30:31:32(qc=5)
REM O 2|1.5|12|13|15|20:21(qc=5)
REM Li 1|1.3|8|9|10|10U:20(qc=5)
REM Fe 3|2.2|2.0|1.0|8|9|10|40:41:32(qc=5)
REM Fe d:4.0 
REM
CELL 1.54180    5.62630    5.62630    9.63061   90.00000   90.00000   90.00000
LATT -1
SFAC Li O  P  Fe 
Li     1 -0.3221420000000  0.1839610000000  0.1128790000000 1.0  -0.04
Li     1  0.3221420000000 -0.1839610000000 -0.3871210000000 1.0  -0.04
Li     1  0.1839610000000  0.3221420000000  0.3628790000000 1.0  -0.04
Li     1 -0.1839610000000 -0.3221420000000 -0.1371210000000 1.0  -0.04
O      2 -0.0582890000000  0.3483690000000  0.1862130000000 1.0   0.02
O      2  0.3857580000000  0.3563920000000  0.1708220000000 1.0   0.01
O      2  0.1519240000000  0.1175670000000 -0.0124520000000 1.0   0.05
O      2  0.1345570000000  0.5525100000000 -0.0252100000000 1.0   0.05
O      2  0.0582890000000 -0.3483690000000 -0.3137870000000 1.0   0.02
O      2 -0.3857580000000 -0.3563920000000 -0.3291780000000 1.0   0.01
O      2 -0.1519240000000 -0.1175670000000 -0.5124520000000 1.0   0.05
O      2 -0.1345570000000 -0.5525100000000 -0.5252100000000 1.0   0.05
O      2  0.3483690000000  0.0582890000000  0.4362130000000 1.0   0.02
O      2  0.3563920000000 -0.3857580000000  0.4208220000000 1.0   0.01
O      2  0.1175670000000 -0.1519240000000  0.2375480000000 1.0   0.05
O      2  0.5525100000000 -0.1345570000000  0.2247900000000 1.0   0.05
O      2 -0.3483690000000 -0.0582890000000 -0.0637870000000 1.0   0.02
O      2 -0.3563920000000  0.3857580000000 -0.0791780000000 1.0   0.01
O      2 -0.1175670000000  0.1519240000000 -0.2624520000000 1.0   0.05
O      2 -0.5525100000000  0.1345570000000 -0.2752100000000 1.0   0.05
P      3  0.1582030000000  0.3391930000000  0.0843250000000 1.0   0.01
P      3 -0.1582030000000 -0.3391930000000 -0.4156750000000 1.0   0.01
P      3  0.3391930000000 -0.1582030000000  0.3343250000000 1.0   0.01
P      3 -0.3391930000000  0.1582030000000 -0.1656750000000 1.0   0.01
Fe     4  0.3453880000000 -0.1820570000000  0.0360810000000 1.0   3.89
Fe     4 -0.3453880000000  0.1820570000000 -0.4639190000000 1.0   3.89
Fe     4 -0.1820570000000 -0.3453880000000  0.2860810000000 1.0   3.89
Fe     4  0.1820570000000  0.3453880000000 -0.2139190000000 1.0   3.89
END
