TITL 4LFP_actual-201126-200820-a66748 -0.0017 331.810972 -1.21388682E+004 20.0000 20.0428 28 (P1) n - 1
REM
REM Run started: Thu, 26 Nov 2020 22:26:06 +0000 in /scratch/scratch/mmm0366/launch_tmp/launcher_2020-11-26-20-08-07-595046
REM CASTEP 19.11| from code version Version unavailable
REM Functional Perdew Burke Ernzerhof Relativity Koelling-Harmon Dispersion off
REM Cut-off 300.0000 eV Grid scale 1.7500 Gmax 15.5288 1/A FBSC none
REM MP grid 4 2 3 Offset 0.000 0.000 0.000 No. kpts 4 Spacing 0.07
REM Total runtime: 8597.08 s
REM Overall efficiency: 77.1818 %
REM
REM 4LFP_actual.cell (cb690b6ff984803026f07b083c6867a4)
REM
REM compiler GCC version 4.9.2
REM options -cpp -iprefix /scratch/UCL/applications/gcc/4.9.2/bin/../lib/gcc/x86_64-unknown-linux-gnu/4.9.2/ -mtune=corei7 -march=x86-64 -g -O2
REM COMMAND_LINE
REM seed 1883314623 -1086981380 -32328242 -1379480769 283373317 2024323094 74544276 343644065 -1742448968 2066954000 1260601155 1965742478
REM
REM P 3|1.8|4|5|5|30:31:32(qc=5)
REM O 2|1.5|12|13|15|20:21(qc=5)
REM Li 1|1.3|8|9|10|10U:20(qc=5)
REM Fe 3|2.2|2.0|1.0|8|9|10|40:41:32(qc=5)
REM Fe d:4.0 
REM
CELL 1.54180    4.75545   10.55386    6.61131   90.00000   90.00000   90.00000
LATT -1
SFAC Li O  P  Fe 
Li     1  0.5000000000000 -0.1392190000000 -0.5000000000000 1.0  -0.03
Li     1 -0.5000000000000  0.3607810000000  0.0000000000000 1.0  -0.03
Li     1  0.5000000000000 -0.2295680000000  0.0000000000000 1.0  -0.04
Li     1 -0.5000000000000  0.2704320000000 -0.5000000000000 1.0  -0.04
O      2 -0.8820180000000 -0.4455940000000  0.3109030000000 1.0   0.16
O      2 -0.4718610000000 -0.5968450000000  0.2676990000000 1.0   0.03
O      2 -0.4226140000000 -0.3496850000000  0.2339710000000 1.0   0.12
O      2  0.8820180000000 -0.4455940000000 -0.3109030000000 1.0   0.16
O      2  0.4718610000000 -0.5968450000000 -0.2676990000000 1.0   0.03
O      2  0.4226140000000 -0.3496850000000 -0.2339710000000 1.0   0.12
O      2 -0.8820180000000  0.0544060000000  0.1890970000000 1.0   0.16
O      2 -0.4718610000000 -0.0968450000000  0.2323010000000 1.0   0.03
O      2 -0.4226140000000  0.1503150000000  0.2660290000000 1.0   0.12
O      2  0.8820180000000  0.0544060000000 -0.1890970000000 1.0   0.16
O      2  0.4718610000000 -0.0968450000000 -0.2323010000000 1.0   0.03
O      2  0.4226140000000  0.1503150000000 -0.2660290000000 1.0   0.12
O      2 -0.0000000000000  0.3108720000000  0.0000000000000 1.0   0.52
O      2 -0.0000000000000 -0.1891280000000 -0.5000000000000 1.0   0.52
O      2 -0.0000000000000 -0.2217680000000  0.0000000000000 1.0   0.53
O      2 -0.0000000000000  0.2782320000000 -0.5000000000000 1.0   0.53
P      3 -0.5632060000000 -0.4661270000000  0.3396230000000 1.0   0.01
P      3  0.5632060000000 -0.4661270000000 -0.3396230000000 1.0   0.01
P      3 -0.5632060000000  0.0338730000000  0.1603770000000 1.0   0.01
P      3  0.5632060000000  0.0338730000000 -0.1603770000000 1.0   0.01
Fe     4 -0.0422870000000 -0.2795560000000  0.2605590000000 1.0   4.19
Fe     4  0.0422870000000 -0.2795560000000 -0.2605590000000 1.0   4.19
Fe     4 -0.0422870000000  0.2204440000000  0.2394410000000 1.0   4.19
Fe     4  0.0422870000000  0.2204440000000 -0.2394410000000 1.0   4.19
END
