TITL 4LFP_actual-201126-113056-ac71c3 -0.0265 283.774735 -1.21489051E+004 16.0000 16.2739 28 (C2/m) n - 1
REM
REM Run started: Thu, 26 Nov 2020 16:30:21 +0000 in /lustre/scratch/uccabz1/launch_tmp/launcher_2020-11-26-11-30-25-419408
REM CASTEP 20.1 from code version af48c487+ pr-geom-scf-spinfix Tue Jun 2 15:39:59 2020 +0100
REM Functional Perdew Burke Ernzerhof Relativity Koelling-Harmon Dispersion off
REM Cut-off 300.0000 eV Grid scale 1.7500 Gmax 15.5288 1/A FBSC none
REM MP grid 3 3 2 Offset 0.000 0.000 0.000 No. kpts 6 Spacing 0.07
REM Total runtime: 18305 s
REM Overall efficiency: 96.5 %
REM
REM 4LFP_actual.cell (cb690b6ff984803026f07b083c6867a4)
REM
REM compiler GCC version 4.9.2
REM options -cpp -iprefix /lustre/shared/ucl/apps/gcc/4.9.2/bin/../lib/gcc/x86_64-unknown-linux-gnu/4.9.2/ -mtune=corei7 -march=x86-64 -g -Og
REM COMMAND_LINE
REM seed -467506670 366990304 1549981876 274718565 671204122 726537328 1033228320 1851797596 328028183 -1167818524 758293129 -593934126
REM
REM P 3|1.8|4|5|5|30:31:32(qc=5)
REM O 2|1.5|12|13|15|20:21(qc=5)
REM Li 1|1.3|8|9|10|10U:20(qc=5)
REM Fe 3|2.2|2.0|1.0|8|9|10|40:41:32(qc=5)
REM Fe d:4.0 
REM
CELL 1.54180    5.91340    5.91340    9.84067   71.69810   71.69810   62.44936
LATT -1
SFAC Li O  P  Fe 
Li     1 -0.2188600000000 -0.4249520000000  0.1324680000000 1.0  -0.04
Li     1  0.4249520000000  0.2188600000000 -0.1324680000000 1.0  -0.04
Li     1 -0.2194410000000 -0.4238880000000 -0.3689400000000 1.0  -0.04
Li     1  0.4238880000000  0.2194410000000  0.3689400000000 1.0  -0.04
O      2  0.4353330000000 -0.1815080000000 -0.3746580000000 1.0   0.04
O      2  0.2446190000000  0.0390730000000 -0.1548430000000 1.0   0.05
O      2  0.4541360000000  0.2506450000000 -0.3922660000000 1.0   0.05
O      2  0.0219520000000  0.2310220000000 -0.3739130000000 1.0   0.04
O      2  0.1815080000000 -0.4353330000000  0.3746580000000 1.0   0.04
O      2 -0.0390730000000 -0.2446190000000  0.1548430000000 1.0   0.05
O      2 -0.2506450000000 -0.4541360000000  0.3922660000000 1.0   0.05
O      2 -0.2310220000000 -0.0219520000000  0.3739130000000 1.0   0.04
O      2  0.4550380000000  0.2500870000000  0.1079200000000 1.0   0.05
O      2  0.2434500000000  0.0403700000000  0.3451800000000 1.0   0.05
O      2  0.0233380000000  0.2305720000000  0.1252540000000 1.0   0.04
O      2  0.4360580000000 -0.1825700000000  0.1261220000000 1.0   0.04
O      2 -0.2500870000000 -0.4550380000000 -0.1079200000000 1.0   0.05
O      2 -0.0403700000000 -0.2434500000000 -0.3451800000000 1.0   0.05
O      2 -0.2305720000000 -0.0233380000000 -0.1252540000000 1.0   0.04
O      2  0.1825700000000 -0.4360580000000 -0.1261220000000 1.0   0.04
P      3  0.2864510000000  0.0823970000000 -0.3246280000000 1.0   0.02
P      3 -0.0823970000000 -0.2864510000000  0.3246280000000 1.0   0.02
P      3  0.2872060000000  0.0820880000000  0.1753080000000 1.0   0.02
P      3 -0.0820880000000 -0.2872060000000 -0.1753080000000 1.0   0.02
Fe     4 -0.1343460000000  0.1343460000000 -0.5000000000000 1.0   3.85
Fe     4 -0.1337250000000  0.1337250000000  0.0000000000000 1.0   3.85
Fe     4  0.3370880000000 -0.3370880000000  0.0000000000000 1.0   3.85
Fe     4  0.3363170000000 -0.3363170000000 -0.5000000000000 1.0   3.85
END
