TITL 4LFP-201124-070456-55c327 -0.0745 182.863509 -6.07377870E+003 8.00000 8.15507 14 (P-1) n - 1
REM
REM Run started: Tue, 24 Nov 2020 09:13:18 +0000 in /scratch/scratch/uccabz1/launch_tmp/launcher_2020-11-24-07-04-54-453145
REM CASTEP 19.11| from code version Version unavailable
REM Functional Perdew Burke Ernzerhof Relativity Koelling-Harmon Dispersion off
REM Cut-off 300.0000 eV Grid scale 1.7500 Gmax 15.5288 1/A FBSC none
REM MP grid 4 4 2 Offset 0.000 0.000 0.000 No. kpts 16 Spacing 0.07
REM Total runtime: 8371.3 s
REM Overall efficiency: 92.8462 %
REM
REM 4LFP.cell (a815d5d25b9f25a0a111bfe3624e67be)
REM
REM compiler GCC version 4.9.2
REM options -cpp -iprefix /scratch/UCL/applications/gcc/4.9.2/bin/../lib/gcc/x86_64-unknown-linux-gnu/4.9.2/ -mtune=corei7 -march=x86-64 -g -O2
REM COMMAND_LINE
REM seed -948443922 -890404938 1300324711 247500306 21269308 2139731591 367343261 1735474838 40982997 907662191 -586292566 -154504514
REM
REM P 3|1.8|4|5|5|30:31:32(qc=5)
REM O 2|1.5|12|13|15|20:21(qc=5)
REM Li 1|1.3|8|9|10|10U:20(qc=5)
REM Fe 3|2.2|2.0|1.0|8|9|10|40:41:32(qc=5)
REM Fe d:4.0 
REM
CELL 1.54180    5.01441    4.68938   10.47586   59.39566   61.31760   67.50996
LATT -1
SFAC Li O  P  Fe 
Li     1  0.0000000000000  0.5000000000000  0.0000000000000 1.0  -0.01
Li     1  0.5000000000000  0.0000000000000  0.0000000000000 1.0  -0.01
O      2 -0.0647170000000 -0.0387830000000 -0.1208950000000 1.0   0.01
O      2 -0.0837120000000  0.5885000000000 -0.3082660000000 1.0   0.06
O      2  0.3306350000000  0.2927350000000 -0.1925170000000 1.0   0.05
O      2  0.3373420000000  0.1391720000000 -0.3959340000000 1.0   0.06
O      2  0.0647170000000  0.0387830000000  0.1208950000000 1.0   0.01
O      2  0.0837120000000 -0.5885000000000  0.3082660000000 1.0   0.06
O      2 -0.3306350000000 -0.2927350000000  0.1925170000000 1.0   0.05
O      2 -0.3373420000000 -0.1391720000000  0.3959340000000 1.0   0.06
P      3  0.1216250000000  0.2403860000000 -0.2507450000000 1.0   0.01
P      3 -0.1216250000000 -0.2403860000000  0.2507450000000 1.0   0.01
Fe     4  0.4242340000000  0.3470930000000  0.3666840000000 1.0   3.83
Fe     4 -0.4242340000000 -0.3470930000000 -0.3666840000000 1.0   3.83
END
