TITL 4LFP-201124-101625-eaedd0 0.0469 157.547821 -6.07362235E+003 8.00000 8.08365 14 (Cc) n - 1
REM
REM Run started: Tue, 24 Nov 2020 10:50:59 +0000 in /lustre/scratch/uccabz1/launch_tmp/launcher_2020-11-24-10-16-22-895608
REM CASTEP 20.1 from code version af48c487+ pr-geom-scf-spinfix Tue Jun 2 15:39:59 2020 +0100
REM Functional Perdew Burke Ernzerhof Relativity Koelling-Harmon Dispersion off
REM Cut-off 300.0000 eV Grid scale 1.7500 Gmax 15.5288 1/A FBSC none
REM MP grid 3 3 3 Offset 0.000 0.000 0.000 No. kpts 10 Spacing 0.07
REM Total runtime: 2751.94 s
REM Overall efficiency: 68.5 %
REM
REM 4LFP.cell (a815d5d25b9f25a0a111bfe3624e67be)
REM
REM compiler GCC version 4.9.2
REM options -cpp -iprefix /lustre/shared/ucl/apps/gcc/4.9.2/bin/../lib/gcc/x86_64-unknown-linux-gnu/4.9.2/ -mtune=corei7 -march=x86-64 -g -Og
REM COMMAND_LINE
REM seed -1094428636 2064958248 1142392645 -376784438 -1579327293 1252703088 1677352314 -1038937935 -984561244 2116106436 545336113 71409173
REM
REM P 3|1.8|4|5|5|30:31:32(qc=5)
REM O 2|1.5|12|13|15|20:21(qc=5)
REM Li 1|1.3|8|9|10|10U:20(qc=5)
REM Fe 3|2.2|2.0|1.0|8|9|10|40:41:32(qc=5)
REM Fe d:4.0 
REM
CELL 1.54180    5.60419    5.60419    5.26927   96.88729   96.88729  103.93704
LATT -1
SFAC Li O  P  Fe 
Li     1 -0.1567520000000 -0.1863600000000  0.2838790000000 1.0  -0.02
Li     1 -0.1863600000000 -0.1567520000000 -0.2161210000000 1.0  -0.02
O      2 -0.5795510000000  0.2067830000000 -0.5542510000000 1.0   0.06
O      2 -0.1575690000000  0.1054360000000 -0.4589250000000 1.0   0.04
O      2 -0.1674690000000  0.5493260000000 -0.4805310000000 1.0   0.04
O      2 -0.3224350000000  0.3470340000000 -0.1068550000000 1.0   0.05
O      2  0.2067830000000 -0.5795510000000 -0.0542510000000 1.0   0.06
O      2  0.1054360000000 -0.1575690000000  0.0410750000000 1.0   0.04
O      2  0.5493260000000 -0.1674690000000  0.0194690000000 1.0   0.04
O      2  0.3470340000000 -0.3224350000000  0.3931450000000 1.0   0.05
P      3 -0.3113130000000  0.3020840000000 -0.3980340000000 1.0   0.01
P      3  0.3020840000000 -0.3113130000000  0.1019660000000 1.0   0.01
Fe     4  0.1617040000000  0.3960270000000 -0.4599980000000 1.0   3.82
Fe     4  0.3960270000000  0.1617040000000  0.0400020000000 1.0   3.82
END
