TITL 4LFP_actual-201126-210824-28f35a -0.0118 327.181138 -1.21439348E+004 16.0000 16.2591 28 (P-1) n - 1
REM
REM Run started: Fri, 27 Nov 2020 03:50:56 +0000 in /lustre/scratch/uccabz1/launch_tmp/launcher_2020-11-26-21-08-16-274848
REM CASTEP 20.1 from code version af48c487+ pr-geom-scf-spinfix Tue Jun 2 15:39:59 2020 +0100
REM Functional Perdew Burke Ernzerhof Relativity Koelling-Harmon Dispersion off
REM Cut-off 300.0000 eV Grid scale 1.7500 Gmax 15.5288 1/A FBSC none
REM MP grid 3 3 2 Offset 0.000 0.000 0.000 No. kpts 9 Spacing 0.07
REM Total runtime: 25881.3 s
REM Overall efficiency: 76.6667 %
REM
REM 4LFP_actual.cell (cb690b6ff984803026f07b083c6867a4)
REM
REM compiler GCC version 4.9.2
REM options -cpp -iprefix /lustre/shared/ucl/apps/gcc/4.9.2/bin/../lib/gcc/x86_64-unknown-linux-gnu/4.9.2/ -mtune=corei7 -march=x86-64 -g -Og
REM COMMAND_LINE
REM seed 498494041 172104987 1792408723 -909255792 1906390442 1684209210 -639182662 -1910178867 1713705948 -1942547384 -2140828663 -2094641607
REM
REM P 3|1.8|4|5|5|30:31:32(qc=5)
REM O 2|1.5|12|13|15|20:21(qc=5)
REM Li 1|1.3|8|9|10|10U:20(qc=5)
REM Fe 3|2.2|2.0|1.0|8|9|10|40:41:32(qc=5)
REM Fe d:4.0 
REM
CELL 1.54180    5.48040    7.44460    9.17650  117.29960   98.93802   81.12328
LATT -1
SFAC Li O  P  Fe 
Li     1  0.3501630000000 -0.2724000000000  0.4388820000000 1.0  -0.07
Li     1 -0.3501630000000  0.2724000000000 -0.4388820000000 1.0  -0.07
Li     1 -0.5000000000000  0.0000000000000  0.0000000000000 1.0  -0.04
Li     1  0.0000000000000 -0.5000000000000  0.0000000000000 1.0  -0.01
O      2  0.2121630000000 -0.2917230000000  0.2269600000000 1.0   0.02
O      2  0.0400530000000 -0.2396920000000 -0.0242560000000 1.0   0.01
O      2 -0.1126250000000  0.0067640000000  0.2494210000000 1.0   0.03
O      2  0.3297820000000  0.0053510000000  0.1876950000000 1.0   0.04
O      2 -0.2121630000000  0.2917230000000 -0.2269600000000 1.0   0.02
O      2 -0.0400530000000  0.2396920000000  0.0242560000000 1.0   0.01
O      2  0.1126250000000 -0.0067640000000 -0.2494210000000 1.0   0.03
O      2 -0.3297820000000 -0.0053510000000 -0.1876950000000 1.0   0.04
O      2  0.0554140000000 -0.4330360000000 -0.3276100000000 1.0   0.04
O      2  0.2790330000000 -0.5773490000000 -0.1342020000000 1.0   0.03
O      2  0.4560310000000 -0.2819770000000 -0.1425290000000 1.0   0.03
O      2 -0.0554140000000  0.4330360000000  0.3276100000000 1.0   0.04
O      2 -0.2790330000000  0.5773490000000  0.1342020000000 1.0   0.03
O      2 -0.4560310000000  0.2819770000000  0.1425290000000 1.0   0.03
O      2 -0.5000000000000  0.5000000000000  0.5000000000000 1.0   0.22
O      2  0.5000000000000  0.0000000000000  0.5000000000000 1.0   0.18
P      3  0.1209210000000 -0.1231290000000  0.1750280000000 1.0   0.01
P      3 -0.1209210000000  0.1231290000000 -0.1750280000000 1.0   0.01
P      3  0.2268730000000 -0.3905660000000 -0.1698400000000 1.0   0.02
P      3 -0.2268730000000  0.3905660000000  0.1698400000000 1.0   0.02
Fe     4 -0.3573150000000 -0.1379450000000  0.2978290000000 1.0   3.83
Fe     4  0.3573150000000  0.1379450000000 -0.2978290000000 1.0   3.83
Fe     4  0.2991700000000  0.3199720000000  0.3218450000000 1.0   3.83
Fe     4 -0.2991700000000 -0.3199720000000 -0.3218450000000 1.0   3.83
END
