TITL 4LFP-201124-105618-2a2c49 0.0682 160.020237 -6.07179721E+003 8.00000 8.10551 14 (P-1) n - 1
REM
REM Run started: Tue, 24 Nov 2020 13:40:29 +0000 in /scratch/scratch/uccabz1/launch_tmp/launcher_2020-11-24-10-56-14-741938
REM CASTEP 19.11| from code version Version unavailable
REM Functional Perdew Burke Ernzerhof Relativity Koelling-Harmon Dispersion off
REM Cut-off 300.0000 eV Grid scale 1.7500 Gmax 15.5288 1/A FBSC none
REM MP grid 4 4 2 Offset 0.000 0.000 0.000 No. kpts 16 Spacing 0.07
REM Total runtime: 9963.32 s
REM Overall efficiency: 95.0833 %
REM
REM 4LFP.cell (a815d5d25b9f25a0a111bfe3624e67be)
REM
REM compiler GCC version 4.9.2
REM options -cpp -iprefix /scratch/UCL/applications/gcc/4.9.2/bin/../lib/gcc/x86_64-unknown-linux-gnu/4.9.2/ -mtune=corei7 -march=x86-64 -g -O2
REM COMMAND_LINE
REM seed -1789189725 1827333726 -1586987443 295134348 1012790221 1082875819 1222562030 -407123018 1695932384 973937119 -1698611324 -678978905
REM
REM P 3|1.8|4|5|5|30:31:32(qc=5)
REM O 2|1.5|12|13|15|20:21(qc=5)
REM Li 1|1.3|8|9|10|10U:20(qc=5)
REM Fe 3|2.2|2.0|1.0|8|9|10|40:41:32(qc=5)
REM Fe d:4.0 
REM
CELL 1.54180    4.06746    5.50334    8.73074  119.00032   90.93978  107.40818
LATT -1
SFAC Li O  P  Fe 
Li     1  0.2077790000000 -0.7224130000000 -0.4334770000000 1.0  -0.04
Li     1 -0.2077790000000  0.7224130000000  0.4334770000000 1.0  -0.04
O      2 -0.4090380000000  0.4633780000000 -0.2356350000000 1.0   0.02
O      2 -0.5735860000000  0.1024100000000 -0.1143960000000 1.0   0.04
O      2 -0.1393050000000  0.0685540000000 -0.3244440000000 1.0   0.03
O      2  0.4090380000000 -0.4633780000000  0.2356350000000 1.0   0.02
O      2  0.5735860000000 -0.1024100000000  0.1143960000000 1.0   0.04
O      2  0.1393050000000 -0.0685540000000  0.3244440000000 1.0   0.03
O      2  0.0000000000000 -0.5000000000000  0.0000000000000 1.0   0.01
O      2  0.0000000000000  0.5000000000000  0.5000000000000 1.0   0.21
P      3 -0.2977030000000  0.2728790000000 -0.1759900000000 1.0   0.01
P      3  0.2977030000000 -0.2728790000000  0.1759900000000 1.0   0.01
Fe     4 -0.0080780000000 -0.2286410000000 -0.2573100000000 1.0   3.83
Fe     4  0.0080780000000  0.2286410000000  0.2573100000000 1.0   3.83
END
