TITL 4LFP_actual-201126-181739-86a811 0.0109 308.492549 -1.21446423E+004 16.0000 16.2629 28 (P-1) n - 1
REM
REM Run started: Fri, 27 Nov 2020 04:53:06 +0000 in /lustre/scratch/uccabz1/launch_tmp/launcher_2020-11-26-18-17-16-361536
REM CASTEP 20.1 from code version af48c487+ pr-geom-scf-spinfix Tue Jun 2 15:39:59 2020 +0100
REM Functional Perdew Burke Ernzerhof Relativity Koelling-Harmon Dispersion off
REM Cut-off 300.0000 eV Grid scale 1.7500 Gmax 15.5288 1/A FBSC none
REM MP grid 3 3 2 Offset 0.000 0.000 0.000 No. kpts 9 Spacing 0.07
REM Total runtime: 41239.1 s
REM Overall efficiency: 79.1667 %
REM
REM 4LFP_actual.cell (cb690b6ff984803026f07b083c6867a4)
REM
REM compiler GCC version 4.9.2
REM options -cpp -iprefix /lustre/shared/ucl/apps/gcc/4.9.2/bin/../lib/gcc/x86_64-unknown-linux-gnu/4.9.2/ -mtune=corei7 -march=x86-64 -g -Og
REM COMMAND_LINE
REM seed -484434551 -997880861 1148865974 -544159002 -2017268475 -1580601442 1612601104 -434437785 -452881145 1392304 1095960753 844723387
REM
REM P 3|1.8|4|5|5|30:31:32(qc=5)
REM O 2|1.5|12|13|15|20:21(qc=5)
REM Li 1|1.3|8|9|10|10U:20(qc=5)
REM Fe 3|2.2|2.0|1.0|8|9|10|40:41:32(qc=5)
REM Fe d:4.0 
REM
CELL 1.54180    6.24045    5.97133    8.91580   84.84084  106.98447  103.80611
LATT -1
SFAC Li O  P  Fe 
Li     1  0.2655260000000 -0.6215600000000  0.4416950000000 1.0  -0.05
Li     1 -0.2655260000000  0.6215600000000 -0.4416950000000 1.0  -0.05
Li     1  0.5000000000000  0.5000000000000  0.0000000000000 1.0  -0.02
Li     1 -0.5000000000000  0.0000000000000  0.0000000000000 1.0  -0.01
O      2  0.6067110000000  0.2933030000000 -0.1302410000000 1.0   0.05
O      2  0.2819490000000  0.1143270000000 -0.3739840000000 1.0   0.03
O      2  0.2324920000000  0.3834530000000 -0.1754770000000 1.0   0.06
O      2  0.4566880000000  0.5375800000000 -0.3721660000000 1.0   0.03
O      2 -0.6067110000000 -0.2933030000000  0.1302410000000 1.0   0.05
O      2 -0.2819490000000 -0.1143270000000  0.3739840000000 1.0   0.03
O      2 -0.2324920000000 -0.3834530000000  0.1754770000000 1.0   0.06
O      2 -0.4566880000000 -0.5375800000000  0.3721660000000 1.0   0.03
O      2  0.0699560000000  0.2879820000000  0.2088620000000 1.0   0.06
O      2  0.1925750000000 -0.0758870000000  0.2954920000000 1.0   0.06
O      2  0.4079700000000  0.1953730000000  0.1208830000000 1.0   0.01
O      2 -0.0699560000000 -0.2879820000000 -0.2088620000000 1.0   0.06
O      2 -0.1925750000000  0.0758870000000 -0.2954920000000 1.0   0.06
O      2 -0.4079700000000 -0.1953730000000 -0.1208830000000 1.0   0.01
O      2  0.0000000000000  0.5000000000000 -0.5000000000000 1.0   0.18
O      2  0.0000000000000  0.0000000000000  0.0000000000000 1.0   0.02
P      3  0.3894060000000  0.3271240000000 -0.2657000000000 1.0   0.02
P      3 -0.3894060000000 -0.3271240000000  0.2657000000000 1.0   0.02
P      3  0.1840010000000  0.1100810000000  0.1637090000000 1.0   0.01
P      3 -0.1840010000000 -0.1100810000000 -0.1637090000000 1.0   0.01
Fe     4 -0.0831420000000  0.3794990000000 -0.1781290000000 1.0   3.78
Fe     4  0.0831420000000 -0.3794990000000  0.1781290000000 1.0   3.78
Fe     4  0.2183530000000 -0.2218500000000 -0.4175780000000 1.0   3.87
Fe     4 -0.2183530000000  0.2218500000000  0.4175780000000 1.0   3.87
END
