TITL 4LFP-201124-082158-193bcc 0.7312 155.300346 -6.07112586E+003 -0.385073E-13 3.47928 14 (P21) n - 1
REM
REM Run started: Tue, 24 Nov 2020 13:02:48 +0000 in /lustre/scratch/uccabz1/launch_tmp/launcher_2020-11-24-08-21-44-092313
REM CASTEP 20.1 from code version af48c487+ pr-geom-scf-spinfix Tue Jun 2 15:39:59 2020 +0100
REM Functional Perdew Burke Ernzerhof Relativity Koelling-Harmon Dispersion off
REM Cut-off 300.0000 eV Grid scale 1.7500 Gmax 15.5288 1/A FBSC none
REM MP grid 4 4 3 Offset 0.000 0.000 0.000 No. kpts 16 Spacing 0.07
REM Total runtime: 17022.3 s
REM Overall efficiency: 95.1667 %
REM
REM 4LFP.cell (a815d5d25b9f25a0a111bfe3624e67be)
REM
REM compiler GCC version 4.9.2
REM options -cpp -iprefix /lustre/shared/ucl/apps/gcc/4.9.2/bin/../lib/gcc/x86_64-unknown-linux-gnu/4.9.2/ -mtune=corei7 -march=x86-64 -g -Og
REM COMMAND_LINE
REM seed -790301233 1925960733 -104105730 -741665691 1286844865 1204929880 -176911330 575771638 -152315412 -850944372 1063677326 578296507
REM
REM P 3|1.8|4|5|5|30:31:32(qc=5)
REM O 2|1.5|12|13|15|20:21(qc=5)
REM Li 1|1.3|8|9|10|10U:20(qc=5)
REM Fe 3|2.2|2.0|1.0|8|9|10|40:41:32(qc=5)
REM Fe d:4.0 
REM
CELL 1.54180    6.43980    5.21794    6.33063   90.00000   90.00000  133.10920
LATT -1
SFAC Li O  P  Fe 
Li     1 -0.1449870000000 -0.0044350000000 -0.0137180000000 1.0   0.00
Li     1  0.1449870000000  0.0044350000000  0.4862820000000 1.0   0.00
O      2  0.6537820000000 -0.0062820000000  0.2162720000000 1.0   0.01
O      2  0.2301010000000 -0.5707090000000  0.0431240000000 1.0  -0.00
O      2  0.2637840000000 -0.5531540000000  0.4373130000000 1.0   0.01
O      2  0.1788460000000 -0.1908170000000  0.2482740000000 1.0   0.01
O      2 -0.6537820000000  0.0062820000000 -0.2837280000000 1.0   0.01
O      2 -0.2301010000000  0.5707090000000 -0.4568760000000 1.0  -0.00
O      2 -0.2637840000000  0.5531540000000 -0.0626870000000 1.0   0.01
O      2 -0.1788460000000  0.1908170000000 -0.2517260000000 1.0   0.01
P      3  0.3279170000000 -0.3319860000000  0.2387370000000 1.0  -0.00
P      3 -0.3279170000000  0.3319860000000 -0.2612630000000 1.0  -0.00
Fe     4  0.2670570000000 -0.4405300000000 -0.2586350000000 1.0  -0.03
Fe     4 -0.2670570000000  0.4405300000000  0.2413650000000 1.0  -0.03
END
