TITL 4LFP-201124-085658-6f7580 0.0429 165.202136 -6.07325254E+003 8.00000 8.14149 14 (P2/c) n - 1
REM
REM Run started: Tue, 24 Nov 2020 09:08:04 +0000 in /lustre/scratch/uccabz1/launch_tmp/launcher_2020-11-24-08-56-56-205998
REM CASTEP 20.1 from code version af48c487+ pr-geom-scf-spinfix Tue Jun 2 15:39:59 2020 +0100
REM Functional Perdew Burke Ernzerhof Relativity Koelling-Harmon Dispersion off
REM Cut-off 300.0000 eV Grid scale 1.7500 Gmax 15.5288 1/A FBSC none
REM MP grid 4 4 2 Offset 0.000 0.000 0.000 No. kpts 8 Spacing 0.07
REM Total runtime: 840.6 s
REM Overall efficiency: 76.6 %
REM
REM 4LFP.cell (a815d5d25b9f25a0a111bfe3624e67be)
REM
REM compiler GCC version 4.9.2
REM options -cpp -iprefix /lustre/shared/ucl/apps/gcc/4.9.2/bin/../lib/gcc/x86_64-unknown-linux-gnu/4.9.2/ -mtune=corei7 -march=x86-64 -g -Og
REM COMMAND_LINE
REM seed 660111240 -1333986667 1696306296 -1482477196 -836435609 -948666306 -1933783166 -1875657621 101851503 1749040055 -1837070317 54110393
REM
REM P 3|1.8|4|5|5|30:31:32(qc=5)
REM O 2|1.5|12|13|15|20:21(qc=5)
REM Li 1|1.3|8|9|10|10U:20(qc=5)
REM Fe 3|2.2|2.0|1.0|8|9|10|40:41:32(qc=5)
REM Fe d:4.0 
REM
CELL 1.54180    4.04369    4.50621    9.59128   90.00000  109.04612   90.00000
LATT -1
SFAC Li O  P  Fe 
Li     1  0.5000000000000 -0.5000000000000  0.0000000000000 1.0  -0.03
Li     1 -0.0000000000000  0.5000000000000 -0.5000000000000 1.0  -0.03
O      2 -0.0450450000000  0.3673530000000  0.1482290000000 1.0   0.05
O      2  0.3890570000000 -0.2368630000000  0.1476340000000 1.0   0.05
O      2  0.5450450000000  0.3673530000000  0.3517710000000 1.0   0.05
O      2  0.1109430000000 -0.2368630000000  0.3523660000000 1.0   0.05
O      2  0.0450450000000 -0.3673530000000 -0.1482290000000 1.0   0.05
O      2 -0.3890570000000  0.2368630000000 -0.1476340000000 1.0   0.05
O      2 -0.5450450000000 -0.3673530000000 -0.3517710000000 1.0   0.05
O      2 -0.1109430000000  0.2368630000000 -0.3523660000000 1.0   0.05
P      3  0.2500000000000  0.5672420000000  0.2500000000000 1.0   0.01
P      3 -0.2500000000000 -0.5672420000000 -0.2500000000000 1.0   0.01
Fe     4  0.2500000000000 -0.0625590000000 -0.2500000000000 1.0   3.82
Fe     4 -0.2500000000000  0.0625590000000  0.2500000000000 1.0   3.82
END
