TITL 4LFP-201124-062200-3f12ee 0.0525 147.225456 -6.06464694E+003 8.00000 8.13211 14 (Pmc21) n - 1
REM
REM Run started: Tue, 24 Nov 2020 06:33:13 +0000 in /lustre/scratch/uccabz1/launch_tmp/launcher_2020-11-24-06-21-58-685710
REM CASTEP 20.1 from code version af48c487+ pr-geom-scf-spinfix Tue Jun 2 15:39:59 2020 +0100
REM Functional Perdew Burke Ernzerhof Relativity Koelling-Harmon Dispersion off
REM Cut-off 300.0000 eV Grid scale 1.7500 Gmax 15.5288 1/A FBSC none
REM MP grid 3 3 3 Offset 0.000 0.000 0.000 No. kpts 8 Spacing 0.07
REM Total runtime: 751.73 s
REM Overall efficiency: 87.2 %
REM
REM 4LFP.cell (a815d5d25b9f25a0a111bfe3624e67be)
REM
REM compiler GCC version 4.9.2
REM options -cpp -iprefix /lustre/shared/ucl/apps/gcc/4.9.2/bin/../lib/gcc/x86_64-unknown-linux-gnu/4.9.2/ -mtune=corei7 -march=x86-64 -g -Og
REM COMMAND_LINE
REM seed -413436261 -1538853034 1168775640 -1225136446 -1326323080 -1018277665 -504445340 71013970 1999093383 2007666020 783451421 -91953520
REM
REM P 3|1.8|4|5|5|30:31:32(qc=5)
REM O 2|1.5|12|13|15|20:21(qc=5)
REM Li 1|1.3|8|9|10|10U:20(qc=5)
REM Fe 3|2.2|2.0|1.0|8|9|10|40:41:32(qc=5)
REM Fe d:4.0 
REM
CELL 1.54180    5.18938    5.30281    5.35009   90.00000   90.00000   90.00000
LATT -1
SFAC Li O  P  Fe 
Li     1  0.0000000000000  0.0689800000000 -0.1418150000000 1.0  -0.02
Li     1  0.0000000000000 -0.4310200000000  0.1418150000000 1.0  -0.02
O      2 -0.2786960000000  0.3380390000000 -0.0967320000000 1.0   0.05
O      2 -0.2802690000000  0.0065480000000 -0.3818260000000 1.0   0.07
O      2  0.2786960000000 -0.1619610000000  0.0967320000000 1.0   0.05
O      2  0.2802690000000 -0.4934520000000  0.3818260000000 1.0   0.07
O      2 -0.2786960000000 -0.1619610000000  0.0967320000000 1.0   0.05
O      2 -0.2802690000000 -0.4934520000000  0.3818260000000 1.0   0.07
O      2  0.2786960000000  0.3380390000000 -0.0967320000000 1.0   0.05
O      2  0.2802690000000  0.0065480000000 -0.3818260000000 1.0   0.07
P      3 -0.5000000000000 -0.3287250000000  0.2353900000000 1.0  -0.03
P      3  0.5000000000000  0.1712750000000 -0.2353900000000 1.0  -0.03
Fe     4  0.5000000000000 -0.3305550000000 -0.2780180000000 1.0   3.80
Fe     4 -0.5000000000000  0.1694450000000  0.2780180000000 1.0   3.80
END
