TITL 4LFP-201124-072506-592c47 0.0449 142.067979 -6.07377070E+003 8.00000 8.08655 14 (P-1) n - 1
REM
REM Run started: Tue, 24 Nov 2020 09:20:05 +0000 in /lustre/scratch/uccabz1/launch_tmp/launcher_2020-11-24-07-25-00-724568
REM CASTEP 20.1 from code version af48c487+ pr-geom-scf-spinfix Tue Jun 2 15:39:59 2020 +0100
REM Functional Perdew Burke Ernzerhof Relativity Koelling-Harmon Dispersion off
REM Cut-off 300.0000 eV Grid scale 1.7500 Gmax 15.5288 1/A FBSC none
REM MP grid 4 3 4 Offset 0.000 0.000 0.000 No. kpts 24 Spacing 0.07
REM Total runtime: 7188.2 s
REM Overall efficiency: 94.8 %
REM
REM 4LFP.cell (a815d5d25b9f25a0a111bfe3624e67be)
REM
REM compiler GCC version 4.9.2
REM options -cpp -iprefix /lustre/shared/ucl/apps/gcc/4.9.2/bin/../lib/gcc/x86_64-unknown-linux-gnu/4.9.2/ -mtune=corei7 -march=x86-64 -g -Og
REM COMMAND_LINE
REM seed 1700494618 1735098073 -1847934048 -1079505547 1004193992 -1320538280 -1676415593 -359595818 1654940997 557506668 1624260558 -1462793071
REM
REM P 3|1.8|4|5|5|30:31:32(qc=5)
REM O 2|1.5|12|13|15|20:21(qc=5)
REM Li 1|1.3|8|9|10|10U:20(qc=5)
REM Fe 3|2.2|2.0|1.0|8|9|10|40:41:32(qc=5)
REM Fe d:4.0 
REM
CELL 1.54180    4.81918    6.38534    6.88107  125.42174  119.27682   87.20883
LATT -1
SFAC Li O  P  Fe 
Li     1  0.0038380000000 -0.2186330000000 -0.5471740000000 1.0  -0.03
Li     1 -0.0038380000000  0.2186330000000  0.5471740000000 1.0  -0.03
O      2  0.5050790000000 -0.3036000000000  0.2543700000000 1.0   0.05
O      2  0.5030340000000  0.0941570000000  0.2673100000000 1.0   0.04
O      2  0.0779400000000 -0.3726000000000 -0.2072910000000 1.0   0.05
O      2  0.0005230000000 -0.1379060000000  0.2003420000000 1.0   0.05
O      2 -0.5050790000000  0.3036000000000 -0.2543700000000 1.0   0.05
O      2 -0.5030340000000 -0.0941570000000 -0.2673100000000 1.0   0.04
O      2 -0.0779400000000  0.3726000000000  0.2072910000000 1.0   0.05
O      2 -0.0005230000000  0.1379060000000 -0.2003420000000 1.0   0.05
P      3  0.2714630000000 -0.1781390000000  0.1314810000000 1.0   0.01
P      3 -0.2714630000000  0.1781390000000 -0.1314810000000 1.0   0.01
Fe     4 -0.4461810000000 -0.3655330000000 -0.2121800000000 1.0   3.83
Fe     4  0.4461810000000  0.3655330000000  0.2121800000000 1.0   3.83
END
