TITL 4LFP-201124-072527-1e34a6 0.0145 167.747183 -6.07463481E+003 8.00000 8.11496 14 (Cc) n - 1
REM
REM Run started: Tue, 24 Nov 2020 10:26:02 +0000 in /lustre/scratch/uccabz1/launch_tmp/launcher_2020-11-24-07-25-25-484423
REM CASTEP 20.1 from code version af48c487+ pr-geom-scf-spinfix Tue Jun 2 15:39:59 2020 +0100
REM Functional Perdew Burke Ernzerhof Relativity Koelling-Harmon Dispersion off
REM Cut-off 300.0000 eV Grid scale 1.7500 Gmax 15.5288 1/A FBSC none
REM MP grid 4 4 2 Offset 0.000 0.000 0.000 No. kpts 16 Spacing 0.07
REM Total runtime: 10925.2 s
REM Overall efficiency: 94.4667 %
REM
REM 4LFP.cell (a815d5d25b9f25a0a111bfe3624e67be)
REM
REM compiler GCC version 4.9.2
REM options -cpp -iprefix /lustre/shared/ucl/apps/gcc/4.9.2/bin/../lib/gcc/x86_64-unknown-linux-gnu/4.9.2/ -mtune=corei7 -march=x86-64 -g -Og
REM COMMAND_LINE
REM seed 1498669203 -594459330 -862871378 266070525 206384322 1655986556 1574025891 -1528944546 1336405845 2044644582 993035467 -3786102
REM
REM P 3|1.8|4|5|5|30:31:32(qc=5)
REM O 2|1.5|12|13|15|20:21(qc=5)
REM Li 1|1.3|8|9|10|10U:20(qc=5)
REM Fe 3|2.2|2.0|1.0|8|9|10|40:41:32(qc=5)
REM Fe d:4.0 
REM
CELL 1.54180    4.62882    5.25026    7.91864   96.03736  103.80360   63.84389
LATT -1
SFAC Li O  P  Fe 
Li     1  0.0023740000000  0.3508710000000  0.3392520000000 1.0  -0.04
Li     1 -0.1467550000000 -0.3508710000000 -0.1607480000000 1.0  -0.04
O      2  0.2928070000000  0.1122060000000  0.1926700000000 1.0   0.04
O      2  0.6037580000000  0.3933320000000  0.1817660000000 1.0   0.04
O      2  0.7756880000000 -0.0995970000000  0.0389550000000 1.0   0.03
O      2  0.2492490000000  0.3128580000000 -0.0977090000000 1.0   0.04
O      2 -0.0949870000000 -0.1122060000000 -0.3073300000000 1.0   0.04
O      2  0.4970900000000 -0.3933320000000 -0.3182340000000 1.0   0.04
O      2  0.1760910000000  0.0995970000000 -0.4610450000000 1.0   0.03
O      2  0.0621060000000 -0.3128580000000 -0.5977090000000 1.0   0.04
P      3  0.4815560000000  0.1752040000000  0.0778020000000 1.0   0.01
P      3  0.1567600000000 -0.1752040000000 -0.4221980000000 1.0   0.01
Fe     4 -0.5016870000000  0.2335770000000 -0.2972290000000 1.0   3.88
Fe     4  0.2318900000000 -0.2335770000000  0.2027710000000 1.0   3.88
END
