TITL 4LFP-201124-132542-7f6f78 0.0150 144.687821 -6.07382764E+003 8.00000 8.18305 14 (Fdd2) n - 1
REM
REM Run started: Tue, 24 Nov 2020 14:55:48 +0000 in /scratch/scratch/uccabz1/launch_tmp/launcher_2020-11-24-13-25-39-684035
REM CASTEP 19.11| from code version Version unavailable
REM Functional Perdew Burke Ernzerhof Relativity Koelling-Harmon Dispersion off
REM Cut-off 300.0000 eV Grid scale 1.7500 Gmax 15.5288 1/A FBSC none
REM MP grid 4 4 4 Offset 0.000 0.000 0.000 No. kpts 15 Spacing 0.07
REM Total runtime: 5907.08 s
REM Overall efficiency: 76.7778 %
REM
REM 4LFP.cell (a815d5d25b9f25a0a111bfe3624e67be)
REM
REM compiler GCC version 4.9.2
REM options -cpp -iprefix /scratch/UCL/applications/gcc/4.9.2/bin/../lib/gcc/x86_64-unknown-linux-gnu/4.9.2/ -mtune=corei7 -march=x86-64 -g -O2
REM COMMAND_LINE
REM seed -2144530687 -917937229 696657089 1601221746 244397720 -1924259927 87783149 -1956478753 -615276115 1508835246 -739933666 1428466482
REM
REM P 3|1.8|4|5|5|30:31:32(qc=5)
REM O 2|1.5|12|13|15|20:21(qc=5)
REM Li 1|1.3|8|9|10|10U:20(qc=5)
REM Fe 3|2.2|2.0|1.0|8|9|10|40:41:32(qc=5)
REM Fe d:4.0 
REM
CELL 1.54180    6.21059    6.21059    5.39594  104.37019  104.37019  124.66225
LATT -1
SFAC Li O  P  Fe 
Li     1  0.3996390000000 -0.1003610000000 -0.2007210000000 1.0  -0.04
Li     1  0.1496390000000  0.1496390000000  0.2992790000000 1.0  -0.04
O      2 -0.2141340000000 -0.3725120000000  0.1199430000000 1.0   0.05
O      2 -0.7318610000000 -0.8853910000000 -0.2971110000000 1.0   0.03
O      2  0.3340780000000  0.4924550000000  0.1199430000000 1.0   0.05
O      2  0.4347510000000  0.5882800000000 -0.2971110000000 1.0   0.03
O      2  0.7424550000000  0.0840780000000  0.6199430000000 1.0   0.05
O      2  0.8382800000000  0.1847510000000  0.2028890000000 1.0   0.03
O      2 -0.1225120000000 -0.4641340000000  0.6199430000000 1.0   0.05
O      2 -0.6353910000000 -0.9818610000000  0.2028890000000 1.0   0.03
P      3 -0.5487270000000 -0.5487270000000 -0.0974540000000 1.0   0.01
P      3 -0.2987270000000  0.2012730000000 -0.5974540000000 1.0   0.01
Fe     4 -0.2236970000000 -0.2236970000000 -0.4473940000000 1.0   3.88
Fe     4  0.0263030000000 -0.4736970000000  0.0526060000000 1.0   3.88
END
