TITL 4LFP-201124-123153-f3a4bc -0.0099 145.115657 -6.07419811E+003 8.00000 8.13698 14 (P-1) n - 1
REM
REM Run started: Tue, 24 Nov 2020 14:26:57 +0000 in /scratch/scratch/uccabz1/launch_tmp/launcher_2020-11-24-12-31-51-685011
REM CASTEP 19.11| from code version Version unavailable
REM Functional Perdew Burke Ernzerhof Relativity Koelling-Harmon Dispersion off
REM Cut-off 300.0000 eV Grid scale 1.7500 Gmax 15.5288 1/A FBSC none
REM MP grid 4 4 3 Offset 0.000 0.000 0.000 No. kpts 24 Spacing 0.07
REM Total runtime: 7682.53 s
REM Overall efficiency: 90.1538 %
REM
REM 4LFP.cell (a815d5d25b9f25a0a111bfe3624e67be)
REM
REM compiler GCC version 4.9.2
REM options -cpp -iprefix /scratch/UCL/applications/gcc/4.9.2/bin/../lib/gcc/x86_64-unknown-linux-gnu/4.9.2/ -mtune=corei7 -march=x86-64 -g -O2
REM COMMAND_LINE
REM seed -1578645591 1312741180 -1212035145 618354896 108488582 1548296847 481107437 -1101787904 -964133940 -540137760 -1377320916 1460225299
REM
REM P 3|1.8|4|5|5|30:31:32(qc=5)
REM O 2|1.5|12|13|15|20:21(qc=5)
REM Li 1|1.3|8|9|10|10U:20(qc=5)
REM Fe 3|2.2|2.0|1.0|8|9|10|40:41:32(qc=5)
REM Fe d:4.0 
REM
CELL 1.54180    5.78525    5.46153    6.08838   75.88236   62.94229   57.89457
LATT -1
SFAC Li O  P  Fe 
Li     1 -0.8379870000000  0.6421900000000  0.2607840000000 1.0  -0.03
Li     1  0.8379870000000 -0.6421900000000 -0.2607840000000 1.0  -0.03
O      2 -0.1835920000000  0.4494150000000  0.4278250000000 1.0   0.04
O      2 -0.2518800000000  0.0316100000000  0.3842400000000 1.0   0.04
O      2 -0.2493730000000  0.4372970000000  0.0605050000000 1.0   0.03
O      2  0.2253870000000  0.0297040000000  0.1222700000000 1.0   0.04
O      2  0.1835920000000 -0.4494150000000 -0.4278250000000 1.0   0.04
O      2  0.2518800000000 -0.0316100000000 -0.3842400000000 1.0   0.04
O      2  0.2493730000000 -0.4372970000000 -0.0605050000000 1.0   0.03
O      2 -0.2253870000000 -0.0297040000000 -0.1222700000000 1.0   0.04
P      3 -0.1168870000000  0.2382450000000  0.2489860000000 1.0   0.01
P      3  0.1168870000000 -0.2382450000000 -0.2489860000000 1.0   0.01
Fe     4  0.5783950000000 -0.1568350000000  0.2488930000000 1.0   3.88
Fe     4 -0.5783950000000  0.1568350000000 -0.2488930000000 1.0   3.88
END
