TITL 4LFP-201124-092623-146a88 -0.0342 166.306925 -6.07329665E+003 8.00000 8.13796 14 (P-4n2) n - 1
REM
REM Run started: Tue, 24 Nov 2020 09:36:16 +0000 in /lustre/scratch/uccabz1/launch_tmp/launcher_2020-11-24-09-26-17-658511
REM CASTEP 20.1 from code version af48c487+ pr-geom-scf-spinfix Tue Jun 2 15:39:59 2020 +0100
REM Functional Perdew Burke Ernzerhof Relativity Koelling-Harmon Dispersion off
REM Cut-off 300.0000 eV Grid scale 1.7500 Gmax 15.5288 1/A FBSC none
REM MP grid 4 4 2 Offset 0.000 0.000 0.000 No. kpts 4 Spacing 0.07
REM Total runtime: 725.58 s
REM Overall efficiency: 81.8 %
REM
REM 4LFP.cell (a815d5d25b9f25a0a111bfe3624e67be)
REM
REM compiler GCC version 4.9.2
REM options -cpp -iprefix /lustre/shared/ucl/apps/gcc/4.9.2/bin/../lib/gcc/x86_64-unknown-linux-gnu/4.9.2/ -mtune=corei7 -march=x86-64 -g -Og
REM COMMAND_LINE
REM seed 1726847217 -443626115 -1533421992 -734165304 1311215924 270862659 817525497 -1581654134 -1005754325 253607788 -648717562 1931241512
REM
REM P 3|1.8|4|5|5|30:31:32(qc=5)
REM O 2|1.5|12|13|15|20:21(qc=5)
REM Li 1|1.3|8|9|10|10U:20(qc=5)
REM Fe 3|2.2|2.0|1.0|8|9|10|40:41:32(qc=5)
REM Fe d:4.0 
REM
CELL 1.54180    4.35607    4.37264    8.73116   90.00000   90.00000   90.00000
LATT -1
SFAC Li O  P  Fe 
Li     1 -0.5000000000000  0.0000000000000 -0.0480090000000 1.0  -0.05
Li     1 -0.0000000000000 -0.5000000000000  0.4519910000000 1.0  -0.05
O      2 -0.2051860000000  0.2032920000000  0.3042650000000 1.0   0.05
O      2 -0.2033980000000 -0.2044600000000  0.0950090000000 1.0   0.05
O      2  0.2051860000000 -0.2032920000000  0.3042650000000 1.0   0.05
O      2  0.2033980000000  0.2044600000000  0.0950090000000 1.0   0.05
O      2  0.2948140000000  0.2967080000000 -0.1957350000000 1.0   0.05
O      2  0.2966020000000  0.7044600000000 -0.4049910000000 1.0   0.05
O      2 -0.2948140000000 -0.2967080000000 -0.1957350000000 1.0   0.05
O      2 -0.2966020000000 -0.7044600000000 -0.4049910000000 1.0   0.05
P      3 -0.0000000000000  0.0000000000000  0.1999090000000 1.0   0.01
P      3 -0.5000000000000 -0.5000000000000 -0.3000910000000 1.0   0.01
Fe     4  0.5000000000000  0.0000000000000  0.4503240000000 1.0   3.84
Fe     4 -0.0000000000000 -0.5000000000000 -0.0496760000000 1.0   3.84
END
