TITL 4LFP-201124-083759-5ff4ad -0.0150 155.479038 -6.07414987E+003 8.00000 8.11958 14 (P21) n - 1
REM
REM Run started: Tue, 24 Nov 2020 09:28:46 +0000 in /scratch/scratch/uccabz1/launch_tmp/launcher_2020-11-24-08-37-58-059480
REM CASTEP 19.11| from code version Version unavailable
REM Functional Perdew Burke Ernzerhof Relativity Koelling-Harmon Dispersion off
REM Cut-off 300.0000 eV Grid scale 1.7500 Gmax 15.5288 1/A FBSC none
REM MP grid 3 3 3 Offset 0.000 0.000 0.000 No. kpts 10 Spacing 0.07
REM Total runtime: 3286.1 s
REM Overall efficiency: 75.0909 %
REM
REM 4LFP.cell (a815d5d25b9f25a0a111bfe3624e67be)
REM
REM compiler GCC version 4.9.2
REM options -cpp -iprefix /scratch/UCL/applications/gcc/4.9.2/bin/../lib/gcc/x86_64-unknown-linux-gnu/4.9.2/ -mtune=corei7 -march=x86-64 -g -O2
REM COMMAND_LINE
REM seed 311520772 955519277 7119727 836909881 -415981019 -1394687779 -1803001913 -946365611 853336822 -1308385344 982263080 -879567189
REM
REM P 3|1.8|4|5|5|30:31:32(qc=5)
REM O 2|1.5|12|13|15|20:21(qc=5)
REM Li 1|1.3|8|9|10|10U:20(qc=5)
REM Fe 3|2.2|2.0|1.0|8|9|10|40:41:32(qc=5)
REM Fe d:4.0 
REM
CELL 1.54180    4.87767    5.10031    6.31136   98.01168   90.00000   90.00000
LATT -1
SFAC Li O  P  Fe 
Li     1  0.2506410000000 -0.1853570000000  0.0144080000000 1.0  -0.04
Li     1 -0.2493590000000  0.1853570000000 -0.0144080000000 1.0  -0.04
O      2  0.1458740000000  0.1813610000000  0.3989650000000 1.0   0.04
O      2  0.5691830000000  0.3623580000000  0.2281240000000 1.0   0.03
O      2  0.1514190000000  0.1754910000000  0.0079300000000 1.0   0.02
O      2  0.1324330000000  0.6266240000000  0.2409820000000 1.0   0.03
O      2 -0.3541260000000 -0.1813610000000 -0.3989650000000 1.0   0.04
O      2  0.0691830000000 -0.3623580000000 -0.2281240000000 1.0   0.03
O      2 -0.3485810000000 -0.1754910000000 -0.0079300000000 1.0   0.02
O      2 -0.3675670000000 -0.6266240000000 -0.2409820000000 1.0   0.03
P      3  0.2522280000000  0.3437450000000  0.2260930000000 1.0   0.01
P      3 -0.2477720000000 -0.3437450000000 -0.2260930000000 1.0   0.01
Fe     4 -0.2732750000000 -0.2350860000000  0.2974520000000 1.0   3.90
Fe     4  0.2267250000000  0.2350860000000 -0.2974520000000 1.0   3.90
END
