TITL 4LFP-201124-115432-ed10a7 -0.0349 171.629930 -6.07378513E+003 8.00000 8.18618 14 (C2) n - 1
REM
REM Run started: Tue, 24 Nov 2020 14:27:58 +0000 in /scratch/scratch/uccabz1/launch_tmp/launcher_2020-11-24-11-54-30-621124
REM CASTEP 19.11| from code version Version unavailable
REM Functional Perdew Burke Ernzerhof Relativity Koelling-Harmon Dispersion off
REM Cut-off 300.0000 eV Grid scale 1.7500 Gmax 15.5288 1/A FBSC none
REM MP grid 4 4 2 Offset 0.000 0.000 0.000 No. kpts 14 Spacing 0.07
REM Total runtime: 10059.5 s
REM Overall efficiency: 95.3636 %
REM
REM 4LFP.cell (a815d5d25b9f25a0a111bfe3624e67be)
REM
REM compiler GCC version 4.9.2
REM options -cpp -iprefix /scratch/UCL/applications/gcc/4.9.2/bin/../lib/gcc/x86_64-unknown-linux-gnu/4.9.2/ -mtune=corei7 -march=x86-64 -g -O2
REM COMMAND_LINE
REM seed -917649161 1599520829 -275578658 1257795596 -1448859501 202413366 -1116083939 -1851244687 -302060490 277331527 657895839 -2109591567
REM
REM P 3|1.8|4|5|5|30:31:32(qc=5)
REM O 2|1.5|12|13|15|20:21(qc=5)
REM Li 1|1.3|8|9|10|10U:20(qc=5)
REM Fe 3|2.2|2.0|1.0|8|9|10|40:41:32(qc=5)
REM Fe d:4.0 
REM
CELL 1.54180    5.07562    5.07562    7.90229   90.96601  113.37352  110.86016
LATT -1
SFAC Li O  P  Fe 
Li     1  0.4116360000000  0.2869310000000  0.4335530000000 1.0  -0.03
Li     1 -0.1466220000000 -0.0219170000000 -0.4335530000000 1.0  -0.03
O      2  0.5363850000000 -0.3766650000000  0.3331860000000 1.0   0.03
O      2  0.3282850000000 -0.2189750000000  0.0172480000000 1.0   0.05
O      2  0.1418550000000 -0.1419380000000  0.2673410000000 1.0   0.04
O      2  0.6887470000000  0.1414360000000  0.3257030000000 1.0   0.05
O      2 -0.7098510000000  0.2031990000000 -0.3331860000000 1.0   0.03
O      2 -0.2362230000000  0.3110370000000 -0.0172480000000 1.0   0.05
O      2 -0.4092790000000 -0.1254860000000 -0.2673410000000 1.0   0.04
O      2 -0.1842670000000  0.3630440000000 -0.3257030000000 1.0   0.05
P      3  0.4123330000000 -0.1554700000000  0.2255060000000 1.0   0.01
P      3 -0.3809760000000  0.1868270000000 -0.2255060000000 1.0   0.01
Fe     4  0.2815740000000 -0.4365560000000 -0.2073130000000 1.0   3.84
Fe     4 -0.2292440000000  0.4888870000000  0.2073130000000 1.0   3.84
END
