TITL 4LFP-201124-120030-b89b8b -0.0105 145.944582 -6.06646409E+003 7.99996 8.16514 14 (Cmcm) n - 1
REM
REM Run started: Tue, 24 Nov 2020 13:30:28 +0000 in /lustre/scratch/uccabz1/launch_tmp/launcher_2020-11-24-12-00-28-515762
REM CASTEP 20.1 from code version af48c487+ pr-geom-scf-spinfix Tue Jun 2 15:39:59 2020 +0100
REM Functional Perdew Burke Ernzerhof Relativity Koelling-Harmon Dispersion off
REM Cut-off 300.0000 eV Grid scale 1.7500 Gmax 15.5288 1/A FBSC none
REM MP grid 4 3 3 Offset 0.000 0.000 0.000 No. kpts 12 Spacing 0.07
REM Total runtime: 5836.73 s
REM Overall efficiency: 75.6154 %
REM
REM 4LFP.cell (a815d5d25b9f25a0a111bfe3624e67be)
REM
REM compiler GCC version 4.9.2
REM options -cpp -iprefix /lustre/shared/ucl/apps/gcc/4.9.2/bin/../lib/gcc/x86_64-unknown-linux-gnu/4.9.2/ -mtune=corei7 -march=x86-64 -g -Og
REM COMMAND_LINE
REM seed 242168916 1472450500 -721224488 -1369694031 1820794652 -771048858 148788484 -2113927557 932185651 -641889648 28075712 -1981698899
REM
REM P 3|1.8|4|5|5|30:31:32(qc=5)
REM O 2|1.5|12|13|15|20:21(qc=5)
REM Li 1|1.3|8|9|10|10U:20(qc=5)
REM Fe 3|2.2|2.0|1.0|8|9|10|40:41:32(qc=5)
REM Fe d:4.0 
REM
CELL 1.54180    5.05115    5.39755    5.93187   90.00000  115.52189   90.00000
LATT -1
SFAC Li O  P  Fe 
Li     1 -0.5000000000000 -0.0000000000000  0.5000000000000 1.0  -0.02
Li     1 -0.5000000000000  0.5000000000000  0.5000000000000 1.0  -0.02
O      2  0.1018180000000  0.0372530000000  0.2420350000000 1.0   0.05
O      2 -0.3512780000000  0.0372170000000  0.2430400000000 1.0   0.05
O      2 -0.1018180000000  0.5372530000000 -0.2420350000000 1.0   0.05
O      2  0.3512780000000  0.5372170000000 -0.2430400000000 1.0   0.05
O      2 -0.1018180000000 -0.0372530000000 -0.2420350000000 1.0   0.05
O      2  0.3512780000000 -0.0372170000000 -0.2430400000000 1.0   0.05
O      2  0.1018180000000 -0.5372530000000  0.2420350000000 1.0   0.05
O      2 -0.3512780000000 -0.5372170000000  0.2430400000000 1.0   0.05
P      3  0.1177680000000 -0.2500000000000 -0.2568860000000 1.0  -0.01
P      3 -0.1177680000000  0.2500000000000  0.2568860000000 1.0  -0.01
Fe     4 -0.2260380000000 -0.2500000000000  0.0460520000000 1.0   3.82
Fe     4  0.2260380000000  0.2500000000000 -0.0460520000000 1.0   3.82
END
