TITL 4LFP_actual-201126-224724-699fbd -0.0692 309.800702 -1.21471894E+004 16.0000 16.2095 28 (P21/m) n - 1
REM
REM Run started: Fri, 27 Nov 2020 07:52:56 +0000 in /lustre/scratch/uccabz1/launch_tmp/launcher_2020-11-27-07-19-37-098443
REM CASTEP 20.1 from code version af48c487+ pr-geom-scf-spinfix Tue Jun 2 15:39:59 2020 +0100
REM Functional Perdew Burke Ernzerhof Relativity Koelling-Harmon Dispersion off
REM Cut-off 300.0000 eV Grid scale 1.7500 Gmax 15.5288 1/A FBSC none
REM MP grid 4 4 1 Offset 0.000 0.000 0.000 No. kpts 8 Spacing 0.07
REM Total runtime: 31910.5 s
REM Overall efficiency: 96.7273 %
REM
REM
REM
REM compiler GCC version 4.9.2
REM options -cpp -iprefix /scratch/UCL/applications/gcc/4.9.2/bin/../lib/gcc/x86_64-unknown-linux-gnu/4.9.2/ -mtune=corei7 -march=x86-64 -g -O2
REM COMMAND_LINE
REM seed -1426515412 1189708837 -1095789655 -1759797757 -241915712 618234913 -1011618031 -874571564 262339843 570050290 -427004432 -534775167
REM
REM P 3|1.8|4|5|5|30:31:32(qc=5)
REM O 2|1.5|12|13|15|20:21(qc=5)
REM Li 1|1.3|8|9|10|10U:20(qc=5)
REM Fe 3|2.2|2.0|1.0|8|9|10|40:41:32(qc=5)
REM Fe d:4.0 
REM
CELL 1.54180    4.88895    4.82903   14.54501   90.00000   90.00000  115.55398
LATT -1
SFAC Li O  P  Fe 
Li     1  0.3808460000000  0.6980830000000 -0.1253100000000 1.0  -0.04
Li     1 -0.3808460000000 -0.6980830000000  0.3746900000000 1.0  -0.04
Li     1 -0.3808460000000 -0.6980830000000  0.1253100000000 1.0  -0.04
Li     1  0.3808460000000  0.6980830000000 -0.3746900000000 1.0  -0.04
O      2  0.2483490000000  0.3285220000000  0.1133290000000 1.0   0.03
O      2  0.5528540000000  0.8969390000000  0.1557280000000 1.0   0.04
O      2  0.2492130000000  0.7577860000000  0.0081590000000 1.0   0.04
O      2 -0.0292370000000  0.6500580000000  0.1562080000000 1.0   0.04
O      2 -0.2483490000000 -0.3285220000000 -0.3866710000000 1.0   0.03
O      2 -0.5528540000000 -0.8969390000000 -0.3442720000000 1.0   0.04
O      2 -0.2492130000000 -0.7577860000000 -0.4918410000000 1.0   0.04
O      2  0.0292370000000 -0.6500580000000 -0.3437920000000 1.0   0.04
O      2 -0.2483490000000 -0.3285220000000 -0.1133290000000 1.0   0.03
O      2 -0.5528540000000 -0.8969390000000 -0.1557280000000 1.0   0.04
O      2 -0.2492130000000 -0.7577860000000 -0.0081590000000 1.0   0.04
O      2  0.0292370000000 -0.6500580000000 -0.1562080000000 1.0   0.04
O      2  0.2483490000000  0.3285220000000  0.3866710000000 1.0   0.03
O      2  0.5528540000000  0.8969390000000  0.3442720000000 1.0   0.04
O      2  0.2492130000000  0.7577860000000  0.4918410000000 1.0   0.04
O      2 -0.0292370000000  0.6500580000000  0.3437920000000 1.0   0.04
P      3  0.2601960000000  0.6568900000000  0.1088820000000 1.0   0.01
P      3 -0.2601960000000 -0.6568900000000 -0.3911180000000 1.0   0.01
P      3 -0.2601960000000 -0.6568900000000 -0.1088820000000 1.0   0.01
P      3  0.2601960000000  0.6568900000000  0.3911180000000 1.0   0.01
Fe     4  0.1251130000000  0.0921020000000 -0.2500000000000 1.0   3.87
Fe     4 -0.1251130000000 -0.0921020000000  0.2500000000000 1.0   3.87
Fe     4  0.0000000000000  0.0000000000000 -0.0000000000000 1.0   3.88
Fe     4  0.0000000000000  0.0000000000000  0.5000000000000 1.0   3.88
END
