TITL 4LFP_actual-201126-144743-3743bf 0.0508 309.154313 -1.21472072E+004 16.0000 16.4954 28 (C2) n - 1
REM
REM Run started: Fri, 27 Nov 2020 06:54:19 +0000 in /scratch/scratch/uccabz1/launch_tmp/launcher_2020-11-26-19-23-58-384991
REM CASTEP 19.11| from code version Version unavailable
REM Functional Perdew Burke Ernzerhof Relativity Koelling-Harmon Dispersion off
REM Cut-off 300.0000 eV Grid scale 1.7500 Gmax 15.5288 1/A FBSC none
REM MP grid 4 3 2 Offset 0.000 0.000 0.000 No. kpts 12 Spacing 0.07
REM Total runtime: 63148.2 s
REM Overall efficiency: 88.5 %
REM
REM
REM
REM compiler GCC version 4.9.2
REM options -cpp -iprefix /scratch/UCL/applications/gcc/4.9.2/bin/../lib/gcc/x86_64-unknown-linux-gnu/4.9.2/ -mtune=corei7 -march=x86-64 -g -O2
REM COMMAND_LINE
REM seed 1413904389 2077633465 -1404207559 -60307615 -770747391 -326269752 1620504320 1921796656 -684049226 -614579900 -11703398 -1120095206
REM
REM P 3|1.8|4|5|5|30:31:32(qc=5)
REM O 2|1.5|12|13|15|20:21(qc=5)
REM Li 1|1.3|8|9|10|10U:20(qc=5)
REM Fe 3|2.2|2.0|1.0|8|9|10|40:41:32(qc=5)
REM Fe d:4.0 
REM
CELL 1.54180    5.00519    7.01571    9.98242  110.57318  108.30749   90.00000
LATT -1
SFAC Li O  P  Fe 
Li     1 -0.1816500000000 -0.1242340000000  0.1710740000000 1.0  -0.05
Li     1  0.1816480000000 -0.2953090000000 -0.1710760000000 1.0  -0.05
Li     1  0.2543240000000  0.0606950000000  0.0956100000000 1.0  -0.01
Li     1 -0.2543260000000 -0.0349160000000 -0.0956120000000 1.0  -0.01
O      2  0.3789510000000 -0.2731060000000 -0.3901100000000 1.0   0.04
O      2  0.4284990000000 -0.6313020000000 -0.3647990000000 1.0   0.06
O      2  0.8562710000000 -0.4213810000000 -0.3541780000000 1.0   0.03
O      2  0.6319140000000 -0.3166500000000 -0.1430850000000 1.0   0.03
O      2 -0.3789530000000  0.1170030000000  0.3901080000000 1.0   0.04
O      2 -0.4285010000000 -0.2665040000000  0.3647970000000 1.0   0.06
O      2 -0.8562730000000 -0.0672030000000  0.3541760000000 1.0   0.03
O      2 -0.6319160000000 -0.1735670000000  0.1430830000000 1.0   0.03
O      2  0.0061190000000  0.0499150000000 -0.3627060000000 1.0   0.04
O      2  0.1053780000000 -0.0159920000000 -0.1187410000000 1.0   0.01
O      2  0.5060110000000  0.1340110000000 -0.1643310000000 1.0   0.03
O      2  0.1280150000000  0.3563190000000 -0.1148570000000 1.0   0.07
O      2 -0.0061210000000  0.4126200000000  0.3627040000000 1.0   0.04
O      2 -0.1053800000000  0.1027480000000  0.1187390000000 1.0   0.01
O      2 -0.5060130000000  0.2983410000000  0.1643290000000 1.0   0.03
O      2 -0.1280170000000  0.4711740000000  0.1148550000000 1.0   0.07
P      3  0.5688350000000 -0.4097930000000 -0.3242120000000 1.0   0.01
P      3 -0.5688370000000 -0.0855820000000  0.3242100000000 1.0   0.01
P      3  0.1846520000000  0.1254450000000 -0.1928780000000 1.0   0.01
P      3 -0.1846540000000  0.3183220000000  0.1928760000000 1.0   0.01
Fe     4  0.0367130000000  0.2221670000000  0.5010650000000 1.0   3.86
Fe     4 -0.0367150000000 -0.2788990000000 -0.5010670000000 1.0   3.86
Fe     4 -0.2818860000000  0.3878070000000 -0.1388840000000 1.0   3.86
Fe     4  0.2818840000000 -0.4733100000000  0.1388820000000 1.0   3.86
END
