TITL 4LFP_actual-201126-070536-e80007 0.0008 286.585931 -1.21482535E+004 16.0000 16.2262 28 (P1) n - 1
REM
REM Run started: Fri, 27 Nov 2020 17:09:00 +0000 in /scratch/scratch/mmm0366/launch_tmp/launcher_2020-11-27-15-55-38-329474
REM CASTEP 19.11| from code version Version unavailable
REM Functional Perdew Burke Ernzerhof Relativity Koelling-Harmon Dispersion off
REM Cut-off 300.0000 eV Grid scale 1.7500 Gmax 15.5288 1/A FBSC none
REM MP grid 3 3 2 Offset 0.000 0.000 0.000 No. kpts 4 Spacing 0.07
REM Total runtime: 9282.84 s
REM Overall efficiency: 77.4167 %
REM
REM
REM
REM compiler GCC version 4.9.2
REM options -cpp -iprefix /lustre/shared/ucl/apps/gcc/4.9.2/bin/../lib/gcc/x86_64-unknown-linux-gnu/4.9.2/ -mtune=corei7 -march=x86-64 -g -Og
REM COMMAND_LINE
REM seed 322346876 -1622675897 632512112 -227415201 -833831662 -1471074247 -1352111544 -615231666 -175770039 635712275 1745807070 -588939577
REM
REM P 3|1.8|4|5|5|30:31:32(qc=5)
REM O 2|1.5|12|13|15|20:21(qc=5)
REM Li 1|1.3|8|9|10|10U:20(qc=5)
REM Fe 3|2.2|2.0|1.0|8|9|10|40:41:32(qc=5)
REM Fe d:4.0 
REM
CELL 1.54180    4.94303    6.24462    9.28445   90.00000   90.00000   90.00000
LATT -1
SFAC Li O  P  Fe 
Li     1  0.5365600000000  0.2057560000000 -0.2786110000000 1.0  -0.04
Li     1  0.0365600000000  0.2942440000000  0.2786110000000 1.0  -0.04
Li     1 -0.0365600000000 -0.2057560000000  0.2213890000000 1.0  -0.04
Li     1 -0.5365600000000 -0.2942440000000 -0.2213890000000 1.0  -0.04
O      2  0.6064610000000 -0.5006960000000  0.5994430000000 1.0   0.03
O      2  0.2283630000000 -0.5076750000000  0.4094680000000 1.0   0.04
O      2  0.6612340000000 -0.2938410000000  0.3603770000000 1.0   0.04
O      2  0.6765230000000 -0.6906580000000  0.3598380000000 1.0   0.04
O      2  0.1064610000000  0.0006960000000 -0.5994430000000 1.0   0.03
O      2 -0.2716370000000  0.0076750000000 -0.4094680000000 1.0   0.04
O      2  0.1612340000000 -0.2061590000000 -0.3603770000000 1.0   0.04
O      2  0.1765230000000  0.1906580000000 -0.3598380000000 1.0   0.04
O      2 -0.1064610000000  0.5006960000000  0.0994430000000 1.0   0.03
O      2  0.2716370000000  0.5076750000000 -0.0905320000000 1.0   0.04
O      2 -0.1612340000000  0.2938410000000 -0.1396230000000 1.0   0.04
O      2 -0.1765230000000  0.6906580000000 -0.1401620000000 1.0   0.04
O      2 -0.6064610000000 -0.0006960000000 -0.0994430000000 1.0   0.03
O      2 -0.2283630000000 -0.0076750000000  0.0905320000000 1.0   0.04
O      2 -0.6612340000000  0.2061590000000  0.1396230000000 1.0   0.04
O      2 -0.6765230000000 -0.1906580000000  0.1401620000000 1.0   0.04
P      3  0.5387840000000 -0.4952410000000  0.4346330000000 1.0   0.00
P      3  0.0387840000000 -0.0047590000000 -0.4346330000000 1.0   0.00
P      3 -0.0387840000000  0.4952410000000 -0.0653670000000 1.0   0.00
P      3 -0.5387840000000  0.0047590000000  0.0653670000000 1.0   0.00
Fe     4 -0.0276760000000 -0.0117760000000 -0.1133600000000 1.0   3.89
Fe     4 -0.5276760000000  0.5117760000000  0.1133600000000 1.0   3.89
Fe     4  0.5276760000000  0.0117760000000  0.3866400000000 1.0   3.89
Fe     4  0.0276760000000 -0.5117760000000 -0.3866400000000 1.0   3.89
END
