TITL 4LFP_actual-201126-162152-163464 0.0094 328.621532 -1.21477210E+004 16.0000 16.3949 28 (P-1) n - 1
REM
REM Run started: Fri, 27 Nov 2020 00:06:05 +0000 in /lustre/scratch/uccabz1/launch_tmp/launcher_2020-11-26-16-21-46-560265
REM CASTEP 20.1 from code version af48c487+ pr-geom-scf-spinfix Tue Jun 2 15:39:59 2020 +0100
REM Functional Perdew Burke Ernzerhof Relativity Koelling-Harmon Dispersion off
REM Cut-off 300.0000 eV Grid scale 1.7500 Gmax 15.5288 1/A FBSC none
REM MP grid 3 3 3 Offset 0.000 0.000 0.000 No. kpts 14 Spacing 0.07
REM Total runtime: 30400.3 s
REM Overall efficiency: 98.125 %
REM
REM 4LFP_actual.cell (cb690b6ff984803026f07b083c6867a4)
REM
REM compiler GCC version 4.9.2
REM options -cpp -iprefix /lustre/shared/ucl/apps/gcc/4.9.2/bin/../lib/gcc/x86_64-unknown-linux-gnu/4.9.2/ -mtune=corei7 -march=x86-64 -g -Og
REM COMMAND_LINE
REM seed -1866685803 786399384 -1534979864 -1920412939 1300646038 -840421708 -1101787904 -753566444 1142256360 1806642603 1888958741 67177589
REM
REM P 3|1.8|4|5|5|30:31:32(qc=5)
REM O 2|1.5|12|13|15|20:21(qc=5)
REM Li 1|1.3|8|9|10|10U:20(qc=5)
REM Fe 3|2.2|2.0|1.0|8|9|10|40:41:32(qc=5)
REM Fe d:4.0 
REM
CELL 1.54180    8.11796    7.97764    7.78219   55.63879   57.67646   56.65326
LATT -1
SFAC Li O  P  Fe 
Li     1  0.0211860000000 -0.2762000000000  0.2309630000000 1.0  -0.02
Li     1 -0.0211860000000  0.2762000000000 -0.2309630000000 1.0  -0.02
Li     1  0.2258460000000  0.0230850000000 -0.4750370000000 1.0  -0.04
Li     1 -0.2258460000000 -0.0230850000000  0.4750370000000 1.0  -0.04
O      2  0.6077150000000 -0.1643020000000 -0.2183980000000 1.0   0.05
O      2  0.2951030000000 -0.0161190000000  0.0742250000000 1.0   0.06
O      2  0.2411480000000  0.0376850000000 -0.2524190000000 1.0   0.01
O      2  0.3297520000000 -0.3317260000000  0.0417120000000 1.0   0.07
O      2 -0.6077150000000  0.1643020000000  0.2183980000000 1.0   0.05
O      2 -0.2951030000000  0.0161190000000 -0.0742250000000 1.0   0.06
O      2 -0.2411480000000 -0.0376850000000  0.2524190000000 1.0   0.01
O      2 -0.3297520000000  0.3317260000000 -0.0417120000000 1.0   0.07
O      2 -0.2151450000000  0.2855620000000  0.3320930000000 1.0   0.06
O      2 -0.3614040000000  0.5754090000000  0.4864170000000 1.0   0.07
O      2 -0.0277480000000  0.2497880000000  0.5384100000000 1.0   0.01
O      2 -0.0339800000000  0.5425290000000  0.1637270000000 1.0   0.08
O      2  0.2151450000000 -0.2855620000000 -0.3320930000000 1.0   0.06
O      2  0.3614040000000 -0.5754090000000 -0.4864170000000 1.0   0.07
O      2  0.0277480000000 -0.2497880000000 -0.5384100000000 1.0   0.01
O      2  0.0339800000000 -0.5425290000000 -0.1637270000000 1.0   0.08
P      3  0.3662460000000 -0.1035660000000 -0.0950770000000 1.0   0.01
P      3 -0.3662460000000  0.1035660000000  0.0950770000000 1.0   0.01
P      3 -0.1674700000000  0.4070930000000  0.3955640000000 1.0   0.01
P      3  0.1674700000000 -0.4070930000000 -0.3955640000000 1.0   0.01
Fe     4 -0.1867720000000 -0.2691410000000 -0.0732780000000 1.0   3.81
Fe     4  0.1867720000000  0.2691410000000  0.0732780000000 1.0   3.81
Fe     4 -0.5420100000000 -0.4284510000000 -0.2207300000000 1.0   3.82
Fe     4  0.5420100000000  0.4284510000000  0.2207300000000 1.0   3.82
END
