TITL 4LFP-201124-083507-52e4c9 -0.0347 145.701751 -6.07415871E+003 8.00000 8.16964 14 (Cc) n - 1
REM
REM Run started: Tue, 24 Nov 2020 09:25:51 +0000 in /lustre/scratch/uccabz1/launch_tmp/launcher_2020-11-24-08-35-04-383190
REM CASTEP 20.1 from code version af48c487+ pr-geom-scf-spinfix Tue Jun 2 15:39:59 2020 +0100
REM Functional Perdew Burke Ernzerhof Relativity Koelling-Harmon Dispersion off
REM Cut-off 300.0000 eV Grid scale 1.7500 Gmax 15.5288 1/A FBSC none
REM MP grid 4 4 3 Offset 0.000 0.000 0.000 No. kpts 24 Spacing 0.07
REM Total runtime: 3201.16 s
REM Overall efficiency: 73.2222 %
REM
REM 4LFP.cell (a815d5d25b9f25a0a111bfe3624e67be)
REM
REM compiler GCC version 4.9.2
REM options -cpp -iprefix /lustre/shared/ucl/apps/gcc/4.9.2/bin/../lib/gcc/x86_64-unknown-linux-gnu/4.9.2/ -mtune=corei7 -march=x86-64 -g -Og
REM COMMAND_LINE
REM seed -103703413 1798590906 -1582532950 -26046537 2024418265 -201117950 1130759755 1496868259 -284166931 721835096 1001704876 -114546574
REM
REM P 3|1.8|4|5|5|30:31:32(qc=5)
REM O 2|1.5|12|13|15|20:21(qc=5)
REM Li 1|1.3|8|9|10|10U:20(qc=5)
REM Fe 3|2.2|2.0|1.0|8|9|10|40:41:32(qc=5)
REM Fe d:4.0 
REM
CELL 1.54180    5.47507    5.47507    6.18717  102.85196  104.25880  118.05381
LATT -1
SFAC Li O  P  Fe 
Li     1  0.3424990000000 -0.4342610000000 -0.3314430000000 1.0  -0.04
Li     1 -0.3971820000000  0.3260580000000  0.1685570000000 1.0  -0.04
O      2 -0.0426800000000 -0.4969230000000  0.0171840000000 1.0   0.05
O      2  0.4740240000000 -0.3869440000000  0.0180830000000 1.0   0.02
O      2  0.4190650000000 -0.0361860000000  0.3271190000000 1.0   0.05
O      2  0.3112740000000 -0.5501440000000  0.3320380000000 1.0   0.03
O      2  0.0141070000000  0.0598650000000 -0.4828160000000 1.0   0.05
O      2 -0.0949720000000 -0.4559410000000 -0.4819170000000 1.0   0.02
O      2 -0.1366950000000 -0.0919470000000 -0.1728810000000 1.0   0.05
O      2  0.3821820000000  0.0207640000000 -0.1679620000000 1.0   0.03
P      3  0.2957040000000 -0.3715850000000  0.1737570000000 1.0   0.01
P      3  0.0453430000000 -0.1219470000000 -0.3262430000000 1.0   0.01
Fe     4 -0.2761970000000  0.1964430000000 -0.3249120000000 1.0   3.89
Fe     4 -0.0213550000000 -0.0487150000000  0.1750880000000 1.0   3.89
END
