TITL 4LFP_actual-201126-220438-11b84c 0.0272 298.201423 -1.21472503E+004 -8.00000 11.0693 28 (Pc) n - 1
REM
REM Run started: Fri, 27 Nov 2020 06:24:15 +0000 in /lustre/scratch/uccabz1/launch_tmp/launcher_2020-11-26-21-59-21-443436
REM CASTEP 20.1 from code version af48c487+ pr-geom-scf-spinfix Tue Jun 2 15:39:59 2020 +0100
REM Functional Perdew Burke Ernzerhof Relativity Koelling-Harmon Dispersion off
REM Cut-off 300.0000 eV Grid scale 1.7500 Gmax 15.5288 1/A FBSC none
REM MP grid 3 3 2 Offset 0.000 0.000 0.000 No. kpts 5 Spacing 0.07
REM Total runtime: 30577.7 s
REM Overall efficiency: 81.5385 %
REM
REM 4LFP_actual.cell (cb690b6ff984803026f07b083c6867a4)
REM
REM compiler GCC version 4.9.2
REM options -cpp -iprefix /lustre/shared/ucl/apps/gcc/4.9.2/bin/../lib/gcc/x86_64-unknown-linux-gnu/4.9.2/ -mtune=corei7 -march=x86-64 -g -Og
REM COMMAND_LINE
REM seed -1830844385 607713185 -2079765585 -1042715966 2127174362 1726621618 155083116 -1600631067 1882057124 1808469306 -461110714 1239950483
REM
REM P 3|1.8|4|5|5|30:31:32(qc=5)
REM O 2|1.5|12|13|15|20:21(qc=5)
REM Li 1|1.3|8|9|10|10U:20(qc=5)
REM Fe 3|2.2|2.0|1.0|8|9|10|40:41:32(qc=5)
REM Fe d:4.0 
REM
CELL 1.54180    4.85779    6.15352   10.00627   90.00000   90.00000   85.52721
LATT -1
SFAC Li O  P  Fe 
Li     1  0.3143250000000  0.3251150000000 -0.2716360000000 1.0   0.02
Li     1 -0.1856750000000 -0.1748850000000  0.2716360000000 1.0   0.02
Li     1  0.4003690000000  0.1374580000000  0.0265470000000 1.0   0.01
Li     1 -0.0996310000000 -0.3625420000000 -0.0265470000000 1.0   0.01
O      2  0.0178010000000 -0.1969880000000 -0.4279620000000 1.0  -0.05
O      2  0.0335160000000 -0.5955520000000 -0.4209230000000 1.0  -0.04
O      2  0.0655910000000 -0.3989940000000 -0.2057250000000 1.0  -0.00
O      2 -0.4073250000000 -0.3722210000000 -0.3259210000000 1.0  -0.01
O      2  0.5178010000000  0.3030120000000  0.4279620000000 1.0  -0.05
O      2  0.5335160000000 -0.0955520000000  0.4209230000000 1.0  -0.04
O      2  0.5655910000000  0.1010060000000  0.2057250000000 1.0  -0.00
O      2  0.0926750000000  0.1277790000000  0.3259210000000 1.0  -0.01
O      2  0.6381380000000 -0.4067730000000  0.1612450000000 1.0   0.00
O      2  0.2048350000000 -0.5948940000000  0.0818610000000 1.0  -0.00
O      2  0.1672710000000 -0.3445990000000  0.2801440000000 1.0  -0.03
O      2  0.2244180000000 -0.1991530000000  0.0437540000000 1.0   0.00
O      2  0.1381380000000  0.0932270000000 -0.1612450000000 1.0   0.00
O      2 -0.2951650000000 -0.0948940000000 -0.0818610000000 1.0  -0.00
O      2 -0.3327290000000  0.1554010000000 -0.2801440000000 1.0  -0.03
O      2 -0.2755820000000  0.3008470000000 -0.0437540000000 1.0   0.00
P      3 -0.0867390000000 -0.3876740000000 -0.3426350000000 1.0  -0.01
P      3  0.4132610000000  0.1123260000000  0.3426350000000 1.0  -0.01
P      3  0.3173490000000 -0.3853180000000  0.1441250000000 1.0  -0.00
P      3 -0.1826510000000  0.1146820000000 -0.1441250000000 1.0  -0.00
Fe     4 -0.1411540000000  0.1109740000000 -0.4683780000000 1.0  -3.88
Fe     4  0.3588460000000 -0.3890260000000  0.4683780000000 1.0  -3.88
Fe     4  0.3741000000000 -0.2111060000000 -0.1570260000000 1.0  -0.01
Fe     4 -0.1259000000000  0.2888940000000  0.1570260000000 1.0  -0.01
END
