TITL 4LFP_actual-201126-202441-4dfc19 0.0109 324.608892 -1.21453851E+004 16.0000 16.3563 28 (P21/m) n - 1
REM
REM Run started: Fri, 27 Nov 2020 03:32:49 +0000 in /scratch/scratch/uccabz1/launch_tmp/launcher_2020-11-26-20-24-19-746156
REM CASTEP 19.11| from code version Version unavailable
REM Functional Perdew Burke Ernzerhof Relativity Koelling-Harmon Dispersion off
REM Cut-off 300.0000 eV Grid scale 1.7500 Gmax 15.5288 1/A FBSC none
REM MP grid 4 2 2 Offset 0.000 0.000 0.000 No. kpts 4 Spacing 0.07
REM Total runtime: 27050.8 s
REM Overall efficiency: 80.2308 %
REM
REM 4LFP_actual.cell (cb690b6ff984803026f07b083c6867a4)
REM
REM compiler GCC version 4.9.2
REM options -cpp -iprefix /scratch/UCL/applications/gcc/4.9.2/bin/../lib/gcc/x86_64-unknown-linux-gnu/4.9.2/ -mtune=corei7 -march=x86-64 -g -O2
REM COMMAND_LINE
REM seed -682543861 920325029 -2031749488 -1331917214 147429035 135383646 1865849636 1427999239 -321314716 -1663838960 -507909370 -1913466847
REM
REM P 3|1.8|4|5|5|30:31:32(qc=5)
REM O 2|1.5|12|13|15|20:21(qc=5)
REM Li 1|1.3|8|9|10|10U:20(qc=5)
REM Fe 3|2.2|2.0|1.0|8|9|10|40:41:32(qc=5)
REM Fe d:4.0 
REM
CELL 1.54180    4.66859    8.02515    9.16112   90.00000   90.00000  108.96051
LATT -1
SFAC Li O  P  Fe 
Li     1 -0.5000000000000  0.0000000000000 -0.0000000000000 1.0  -0.05
Li     1  0.5000000000000  0.0000000000000 -0.5000000000000 1.0  -0.05
Li     1  0.6917390000000  0.4169870000000 -0.2500000000000 1.0  -0.05
Li     1 -0.6917390000000 -0.4169870000000  0.2500000000000 1.0  -0.05
O      2  0.1131680000000 -0.1484340000000 -0.5758830000000 1.0   0.05
O      2 -0.3695910000000 -0.3976630000000 -0.6148600000000 1.0   0.04
O      2 -0.0299530000000 -0.3917460000000 -0.3893500000000 1.0   0.03
O      2 -0.3498790000000 -0.1933450000000 -0.4045840000000 1.0   0.06
O      2 -0.1131680000000  0.1484340000000 -0.0758830000000 1.0   0.05
O      2  0.3695910000000  0.3976630000000 -0.1148600000000 1.0   0.04
O      2  0.0299530000000  0.3917460000000  0.1106500000000 1.0   0.03
O      2  0.3498790000000  0.1933450000000  0.0954160000000 1.0   0.06
O      2 -0.1131680000000  0.1484340000000  0.5758830000000 1.0   0.05
O      2  0.3695910000000  0.3976630000000  0.6148600000000 1.0   0.04
O      2  0.0299530000000  0.3917460000000  0.3893500000000 1.0   0.03
O      2  0.3498790000000  0.1933450000000  0.4045840000000 1.0   0.06
O      2  0.1131680000000 -0.1484340000000  0.0758830000000 1.0   0.05
O      2 -0.3695910000000 -0.3976630000000  0.1148600000000 1.0   0.04
O      2 -0.0299530000000 -0.3917460000000 -0.1106500000000 1.0   0.03
O      2 -0.3498790000000 -0.1933450000000 -0.0954160000000 1.0   0.06
P      3 -0.1590590000000 -0.2900110000000 -0.4966900000000 1.0   0.01
P      3  0.1590590000000  0.2900110000000  0.0033100000000 1.0   0.01
P      3  0.1590590000000  0.2900110000000  0.4966900000000 1.0   0.01
P      3 -0.1590590000000 -0.2900110000000 -0.0033100000000 1.0   0.01
Fe     4  0.1476210000000  0.0062600000000  0.2500000000000 1.0   3.81
Fe     4 -0.1476210000000 -0.0062600000000 -0.2500000000000 1.0   3.81
Fe     4 -0.6893670000000 -0.4019300000000 -0.2500000000000 1.0   3.87
Fe     4  0.6893670000000  0.4019300000000  0.2500000000000 1.0   3.87
END
