TITL 4LFP_actual-201126-201858-ce6bf2 -0.0042 302.721168 -1.21469209E+004 16.0000 16.2264 28 (P21/c) n - 1
REM
REM Run started: Thu, 26 Nov 2020 22:07:29 +0000 in /lustre/scratch/uccabz1/launch_tmp/launcher_2020-11-26-20-18-55-935109
REM CASTEP 20.1 from code version af48c487+ pr-geom-scf-spinfix Tue Jun 2 15:39:59 2020 +0100
REM Functional Perdew Burke Ernzerhof Relativity Koelling-Harmon Dispersion off
REM Cut-off 300.0000 eV Grid scale 1.7500 Gmax 15.5288 1/A FBSC none
REM MP grid 4 2 2 Offset 0.000 0.000 0.000 No. kpts 4 Spacing 0.07
REM Total runtime: 7490.21 s
REM Overall efficiency: 81.4286 %
REM
REM 4LFP_actual.cell (cb690b6ff984803026f07b083c6867a4)
REM
REM compiler GCC version 4.9.2
REM options -cpp -iprefix /lustre/shared/ucl/apps/gcc/4.9.2/bin/../lib/gcc/x86_64-unknown-linux-gnu/4.9.2/ -mtune=corei7 -march=x86-64 -g -Og
REM COMMAND_LINE
REM seed 1918917537 -2050937416 -1140601628 -399519614 -1835145306 -796823629 1014041893 1804355942 -1216211566 177054495 -1874488863 1959258058
REM
REM P 3|1.8|4|5|5|30:31:32(qc=5)
REM O 2|1.5|12|13|15|20:21(qc=5)
REM Li 1|1.3|8|9|10|10U:20(qc=5)
REM Fe 3|2.2|2.0|1.0|8|9|10|40:41:32(qc=5)
REM Fe d:4.0 
REM
CELL 1.54180    4.57237    7.58583    8.73980   90.00000   90.00000   93.02134
LATT -1
SFAC Li O  P  Fe 
Li     1 -0.1873310000000  0.1381750000000 -0.4933800000000 1.0  -0.04
Li     1  0.1873310000000  0.3618250000000  0.0066200000000 1.0  -0.04
Li     1  0.1873310000000 -0.1381750000000  0.4933800000000 1.0  -0.04
Li     1 -0.1873310000000 -0.3618250000000 -0.0066200000000 1.0  -0.04
O      2  0.1658600000000 -0.2623090000000  0.3146390000000 1.0   0.04
O      2  0.6578940000000 -0.2291480000000  0.1808940000000 1.0   0.03
O      2  0.2322750000000 -0.4046900000000  0.0546000000000 1.0   0.01
O      2  0.2221230000000 -0.0757420000000  0.0741200000000 1.0   0.06
O      2 -0.1658600000000 -0.2376910000000 -0.1853610000000 1.0   0.04
O      2 -0.6578940000000 -0.2708520000000 -0.3191060000000 1.0   0.03
O      2 -0.2322750000000 -0.0953100000000 -0.4454000000000 1.0   0.01
O      2 -0.2221230000000 -0.4242580000000 -0.4258800000000 1.0   0.06
O      2 -0.1658600000000  0.2623090000000 -0.3146390000000 1.0   0.04
O      2 -0.6578940000000  0.2291480000000 -0.1808940000000 1.0   0.03
O      2 -0.2322750000000  0.4046900000000 -0.0546000000000 1.0   0.01
O      2 -0.2221230000000  0.0757420000000 -0.0741200000000 1.0   0.06
O      2  0.1658600000000  0.2376910000000  0.1853610000000 1.0   0.04
O      2  0.6578940000000  0.2708520000000  0.3191060000000 1.0   0.03
O      2  0.2322750000000  0.0953100000000  0.4454000000000 1.0   0.01
O      2  0.2221230000000  0.4242580000000  0.4258800000000 1.0   0.06
P      3  0.3144450000000 -0.2464790000000  0.1563020000000 1.0   0.01
P      3 -0.3144450000000 -0.2535210000000 -0.3436980000000 1.0   0.01
P      3 -0.3144450000000  0.2464790000000 -0.1563020000000 1.0   0.01
P      3  0.3144450000000  0.2535210000000  0.3436980000000 1.0   0.01
Fe     4  0.1757730000000 -0.0477390000000 -0.1624600000000 1.0   3.89
Fe     4 -0.1757730000000 -0.4522610000000  0.3375400000000 1.0   3.89
Fe     4 -0.1757730000000  0.0477390000000  0.1624600000000 1.0   3.89
Fe     4  0.1757730000000  0.4522610000000 -0.3375400000000 1.0   3.89
END
