TITL 4LFP_actual-201126-233427-f809c4 -0.0046 314.595796 -1.21490007E+004 16.0000 16.2529 28 (P212121) n - 1
REM
REM Run started: Fri, 27 Nov 2020 02:21:18 +0000 in /lustre/scratch/uccabz1/launch_tmp/launcher_2020-11-26-23-34-25-623402
REM CASTEP 20.1 from code version af48c487+ pr-geom-scf-spinfix Tue Jun 2 15:39:59 2020 +0100
REM Functional Perdew Burke Ernzerhof Relativity Koelling-Harmon Dispersion off
REM Cut-off 300.0000 eV Grid scale 1.7500 Gmax 15.5288 1/A FBSC none
REM MP grid 3 2 2 Offset 0.000 0.000 0.000 No. kpts 2 Spacing 0.07
REM Total runtime: 10126.8 s
REM Overall efficiency: 78.5385 %
REM
REM 4LFP_actual.cell (cb690b6ff984803026f07b083c6867a4)
REM
REM compiler GCC version 4.9.2
REM options -cpp -iprefix /lustre/shared/ucl/apps/gcc/4.9.2/bin/../lib/gcc/x86_64-unknown-linux-gnu/4.9.2/ -mtune=corei7 -march=x86-64 -g -Og
REM COMMAND_LINE
REM seed 1923344375 2042500812 -1696269400 -1534753260 421328973 383993648 91363689 383690341 287593847 -951632462 2053211070 572221036
REM
REM P 3|1.8|4|5|5|30:31:32(qc=5)
REM O 2|1.5|12|13|15|20:21(qc=5)
REM Li 1|1.3|8|9|10|10U:20(qc=5)
REM Fe 3|2.2|2.0|1.0|8|9|10|40:41:32(qc=5)
REM Fe d:4.0 
REM
CELL 1.54180    4.83108    7.22625    9.01147   90.00000   90.00000   90.00000
LATT -1
SFAC Li O  P  Fe 
Li     1  0.0597770000000  0.3635420000000 -0.4891860000000 1.0  -0.03
Li     1 -0.4402230000000  0.1364580000000  0.4891860000000 1.0  -0.03
Li     1  0.4402230000000 -0.3635420000000  0.0108140000000 1.0  -0.03
Li     1 -0.0597770000000 -0.1364580000000 -0.0108140000000 1.0  -0.03
O      2 -0.2380180000000  0.3263910000000 -0.0820740000000 1.0   0.05
O      2 -0.2563460000000  0.6809440000000 -0.1289520000000 1.0   0.04
O      2  0.2052100000000  0.4995680000000 -0.1234660000000 1.0   0.03
O      2 -0.1584040000000  0.4696640000000 -0.3349080000000 1.0   0.04
O      2  0.2619820000000  0.1736090000000  0.0820740000000 1.0   0.05
O      2  0.2436540000000 -0.1809440000000  0.1289520000000 1.0   0.04
O      2  0.7052100000000  0.0004320000000  0.1234660000000 1.0   0.03
O      2  0.3415960000000  0.0303360000000  0.3349080000000 1.0   0.04
O      2 -0.2619820000000 -0.3263910000000  0.4179260000000 1.0   0.05
O      2 -0.2436540000000 -0.6809440000000  0.3710480000000 1.0   0.04
O      2 -0.7052100000000 -0.4995680000000  0.3765340000000 1.0   0.03
O      2 -0.3415960000000 -0.4696640000000  0.1650920000000 1.0   0.04
O      2  0.2380180000000 -0.1736090000000 -0.4179260000000 1.0   0.05
O      2  0.2563460000000  0.1809440000000 -0.3710480000000 1.0   0.04
O      2 -0.2052100000000 -0.0004320000000 -0.3765340000000 1.0   0.03
O      2  0.1584040000000 -0.0303360000000 -0.1650920000000 1.0   0.04
P      3 -0.1044760000000  0.4939500000000 -0.1668820000000 1.0   0.00
P      3  0.3955240000000  0.0060500000000  0.1668820000000 1.0   0.00
P      3 -0.3955240000000 -0.4939500000000  0.3331180000000 1.0   0.00
P      3  0.1044760000000 -0.0060500000000 -0.3331180000000 1.0   0.00
Fe     4  0.3766470000000  0.2239910000000 -0.1395850000000 1.0   3.86
Fe     4 -0.1233530000000  0.2760090000000  0.1395850000000 1.0   3.86
Fe     4  0.1233530000000 -0.2239910000000  0.3604150000000 1.0   3.86
Fe     4 -0.3766470000000 -0.2760090000000 -0.3604150000000 1.0   3.86
END
