TITL 4LFP-201124-140435-6439f0 -0.0251 156.528602 -6.07378953E+003 8.00000 8.10304 14 (Pc) n - 1
REM
REM Run started: Tue, 24 Nov 2020 14:50:49 +0000 in /scratch/scratch/uccabz1/launch_tmp/launcher_2020-11-24-14-04-33-171699
REM CASTEP 19.11| from code version Version unavailable
REM Functional Perdew Burke Ernzerhof Relativity Koelling-Harmon Dispersion off
REM Cut-off 300.0000 eV Grid scale 1.7500 Gmax 15.5288 1/A FBSC none
REM MP grid 4 4 2 Offset 0.000 0.000 0.000 No. kpts 8 Spacing 0.07
REM Total runtime: 3697.38 s
REM Overall efficiency: 94.1429 %
REM
REM 4LFP.cell (a815d5d25b9f25a0a111bfe3624e67be)
REM
REM compiler GCC version 4.9.2
REM options -cpp -iprefix /scratch/UCL/applications/gcc/4.9.2/bin/../lib/gcc/x86_64-unknown-linux-gnu/4.9.2/ -mtune=corei7 -march=x86-64 -g -O2
REM COMMAND_LINE
REM seed 1203319808 -1872766393 -1476185476 610351935 1217102747 -2088238024 -419288766 1564565153 746997828 1186417094 -1114982434 1547503350
REM
REM P 3|1.8|4|5|5|30:31:32(qc=5)
REM O 2|1.5|12|13|15|20:21(qc=5)
REM Li 1|1.3|8|9|10|10U:20(qc=5)
REM Fe 3|2.2|2.0|1.0|8|9|10|40:41:32(qc=5)
REM Fe d:4.0 
REM
CELL 1.54180    4.82582    5.31670    7.34111   90.00000   90.00000  123.79494
LATT -1
SFAC Li O  P  Fe 
Li     1  0.4325690000000  0.0344200000000 -0.4132380000000 1.0  -0.02
Li     1  0.4325690000000  0.5344200000000  0.4132380000000 1.0  -0.02
O      2 -0.2050570000000 -0.3974570000000 -0.0522820000000 1.0   0.06
O      2  0.0851240000000  0.0308910000000 -0.2824520000000 1.0   0.03
O      2 -0.2281480000000 -0.5312990000000 -0.3740570000000 1.0   0.04
O      2 -0.5482020000000 -0.2987910000000 -0.2824470000000 1.0   0.03
O      2 -0.2050570000000  0.1025430000000  0.0522820000000 1.0   0.06
O      2  0.0851240000000  0.5308910000000  0.2824520000000 1.0   0.03
O      2 -0.2281480000000 -0.0312990000000  0.3740570000000 1.0   0.04
O      2 -0.5482020000000  0.2012090000000  0.2824470000000 1.0   0.03
P      3 -0.2248050000000 -0.2932370000000 -0.2492220000000 1.0   0.01
P      3 -0.2248050000000  0.2067630000000  0.2492220000000 1.0   0.01
Fe     4  0.0157260000000 -0.1459330000000  0.1696170000000 1.0   3.86
Fe     4  0.0157260000000  0.3540670000000 -0.1696170000000 1.0   3.86
END
