TITL 4LFP-201124-130246-1ba464 0.0296 148.241745 -6.07443332E+003 8.00000 8.13961 14 (P-1) n - 1
REM
REM Run started: Tue, 24 Nov 2020 15:36:28 +0000 in /lustre/scratch/uccabz1/launch_tmp/launcher_2020-11-24-13-02-40-922811
REM CASTEP 20.1 from code version af48c487+ pr-geom-scf-spinfix Tue Jun 2 15:39:59 2020 +0100
REM Functional Perdew Burke Ernzerhof Relativity Koelling-Harmon Dispersion off
REM Cut-off 300.0000 eV Grid scale 1.7500 Gmax 15.5288 1/A FBSC none
REM MP grid 4 3 3 Offset 0.000 0.000 0.000 No. kpts 18 Spacing 0.07
REM Total runtime: 8833.06 s
REM Overall efficiency: 95.8182 %
REM
REM 4LFP.cell (a815d5d25b9f25a0a111bfe3624e67be)
REM
REM compiler GCC version 4.9.2
REM options -cpp -iprefix /lustre/shared/ucl/apps/gcc/4.9.2/bin/../lib/gcc/x86_64-unknown-linux-gnu/4.9.2/ -mtune=corei7 -march=x86-64 -g -Og
REM COMMAND_LINE
REM seed 1263802287 -363203009 1486497221 1395024667 -1720925422 689989491 128074924 233469661 851065625 1782558117 1490051683 -915095807
REM
REM P 3|1.8|4|5|5|30:31:32(qc=5)
REM O 2|1.5|12|13|15|20:21(qc=5)
REM Li 1|1.3|8|9|10|10U:20(qc=5)
REM Fe 3|2.2|2.0|1.0|8|9|10|40:41:32(qc=5)
REM Fe d:4.0 
REM
CELL 1.54180    4.78934    6.13538    6.25776   82.08813   86.32666   54.49748
LATT -1
SFAC Li O  P  Fe 
Li     1  0.5000000000000 -0.5000000000000  0.0000000000000 1.0  -0.04
Li     1 -0.5000000000000 -0.5000000000000  0.5000000000000 1.0  -0.02
O      2 -0.2997420000000  0.6209400000000  0.2215430000000 1.0   0.04
O      2  0.0177310000000  0.1620190000000  0.1035130000000 1.0   0.05
O      2  0.3690650000000  0.3107550000000  0.2444710000000 1.0   0.03
O      2 -0.0062040000000  0.2219250000000  0.4988790000000 1.0   0.04
O      2  0.2997420000000 -0.6209400000000 -0.2215430000000 1.0   0.04
O      2 -0.0177310000000 -0.1620190000000 -0.1035130000000 1.0   0.05
O      2 -0.3690650000000 -0.3107550000000 -0.2444710000000 1.0   0.03
O      2  0.0062040000000 -0.2219250000000 -0.4988790000000 1.0   0.04
P      3  0.0324770000000  0.3273350000000  0.2688110000000 1.0   0.01
P      3 -0.0324770000000 -0.3273350000000 -0.2688110000000 1.0   0.01
Fe     4  0.1983760000000  0.0827190000000 -0.2045320000000 1.0   3.85
Fe     4 -0.1983760000000 -0.0827190000000  0.2045320000000 1.0   3.85
END
