TITL 4LFP_actual-201126-071036-447ecb -0.0574 337.829901 -1.21475435E+004 16.0000 16.2683 28 (P1) n - 1
REM
REM Run started: Fri, 27 Nov 2020 07:30:29 +0000 in /scratch/scratch/mmm0366/launch_tmp/launcher_2020-11-26-07-10-28-920191
REM CASTEP 19.11| from code version Version unavailable
REM Functional Perdew Burke Ernzerhof Relativity Koelling-Harmon Dispersion off
REM Cut-off 300.0000 eV Grid scale 1.7500 Gmax 15.5288 1/A FBSC none
REM MP grid 4 4 2 Offset 0.000 0.000 0.000 No. kpts 16 Spacing 0.07
REM Total runtime: 82303.2 s
REM Overall efficiency: 96.5 %
REM
REM 4LFP_actual.cell (cb690b6ff984803026f07b083c6867a4)
REM
REM compiler GCC version 4.9.2
REM options -cpp -iprefix /scratch/UCL/applications/gcc/4.9.2/bin/../lib/gcc/x86_64-unknown-linux-gnu/4.9.2/ -mtune=corei7 -march=x86-64 -g -O2
REM COMMAND_LINE
REM seed 736806134 1456296435 -1079465065 237826379 -1495602393 -1768525890 1350431960 -1260228645 165619838 -727732426 -2013312344 -972491948
REM
REM P 3|1.8|4|5|5|30:31:32(qc=5)
REM O 2|1.5|12|13|15|20:21(qc=5)
REM Li 1|1.3|8|9|10|10U:20(qc=5)
REM Fe 3|2.2|2.0|1.0|8|9|10|40:41:32(qc=5)
REM Fe d:4.0 
REM
CELL 1.54180    5.26346    5.05000   15.37501   67.41077   72.35015   65.31067
LATT -1
SFAC Li O  P  Fe 
Li     1  0.4362770000000  0.0804460000000 -0.1550490000000 1.0  -0.03
Li     1 -0.4362770000000 -0.0804460000000  0.1550490000000 1.0  -0.03
Li     1  0.2079510000000  0.6494160000000  0.2701010000000 1.0  -0.02
Li     1 -0.2079510000000 -0.6494160000000 -0.2701010000000 1.0  -0.02
O      2 -0.4153430000000  0.1269540000000 -0.2837830000000 1.0   0.01
O      2  0.0774050000000  0.0910330000000 -0.3734270000000 1.0   0.05
O      2 -0.1128320000000 -0.3157290000000 -0.3573040000000 1.0   0.05
O      2 -0.3294300000000  0.2234340000000 -0.4604420000000 1.0   0.07
O      2  0.4153430000000 -0.1269540000000  0.2837830000000 1.0   0.01
O      2 -0.0774050000000 -0.0910330000000  0.3734270000000 1.0   0.05
O      2  0.1128320000000  0.3157290000000  0.3573040000000 1.0   0.05
O      2  0.3294300000000 -0.2234340000000  0.4604420000000 1.0   0.07
O      2 -0.2699710000000  0.1969350000000  0.0080050000000 1.0   0.04
O      2 -0.5089340000000  0.4253930000000 -0.1393120000000 1.0   0.05
O      2 -0.2121000000000  0.6833220000000 -0.1193460000000 1.0   0.05
O      2  0.0128860000000  0.1860380000000 -0.1609980000000 1.0   0.05
O      2  0.2699710000000 -0.1969350000000 -0.0080050000000 1.0   0.04
O      2  0.5089340000000 -0.4253930000000  0.1393120000000 1.0   0.05
O      2  0.2121000000000 -0.6833220000000  0.1193460000000 1.0   0.05
O      2 -0.0128860000000 -0.1860380000000  0.1609980000000 1.0   0.05
P      3 -0.1928260000000  0.0256380000000 -0.3666280000000 1.0   0.02
P      3  0.1928260000000 -0.0256380000000  0.3666280000000 1.0   0.02
P      3 -0.2437830000000  0.3716490000000 -0.0993460000000 1.0   0.01
P      3  0.2437830000000 -0.3716490000000  0.0993460000000 1.0   0.01
Fe     4  0.1164160000000 -0.2777180000000 -0.0997650000000 1.0   3.84
Fe     4 -0.1164160000000  0.2777180000000  0.0997650000000 1.0   3.84
Fe     4 -0.2293100000000  0.5710920000000  0.4322850000000 1.0   3.82
Fe     4  0.2293100000000 -0.5710920000000 -0.4322850000000 1.0   3.82
END
