TITL 4LFP_actual-201126-112719-740edb -0.0165 319.866559 -1.21442917E+004 16.0000 16.2398 28 (Cm) n - 1
REM
REM Run started: Thu, 26 Nov 2020 19:03:47 +0000 in /scratch/scratch/uccabz1/launch_tmp/launcher_2020-11-26-11-26-53-057445
REM CASTEP 19.11| from code version Version unavailable
REM Functional Perdew Burke Ernzerhof Relativity Koelling-Harmon Dispersion off
REM Cut-off 300.0000 eV Grid scale 1.7500 Gmax 15.5288 1/A FBSC none
REM MP grid 4 2 2 Offset 0.000 0.000 0.000 No. kpts 6 Spacing 0.07
REM Total runtime: 30289.1 s
REM Overall efficiency: 68.3333 %
REM
REM 4LFP_actual.cell (cb690b6ff984803026f07b083c6867a4)
REM
REM compiler GCC version 4.9.2
REM options -cpp -iprefix /scratch/UCL/applications/gcc/4.9.2/bin/../lib/gcc/x86_64-unknown-linux-gnu/4.9.2/ -mtune=corei7 -march=x86-64 -g -O2
REM COMMAND_LINE
REM seed 541594204 379295302 1633595642 866230550 2000836596 1113021162 278017520 831863815 -1386236034 1533219400 -1916262063 1225919476
REM
REM P 3|1.8|4|5|5|30:31:32(qc=5)
REM O 2|1.5|12|13|15|20:21(qc=5)
REM Li 1|1.3|8|9|10|10U:20(qc=5)
REM Fe 3|2.2|2.0|1.0|8|9|10|40:41:32(qc=5)
REM Fe d:4.0 
REM
CELL 1.54180    4.90796    8.52186    8.52186   75.22586  107.15281  107.15281
LATT -1
SFAC Li O  P  Fe 
Li     1  0.3769130000000 -0.1935880000000  0.1206140000000 1.0  -0.04
Li     1  0.3769130000000  0.1206140000000 -0.1935880000000 1.0  -0.04
Li     1  0.1588430000000  0.0792500000000  0.4010940000000 1.0  -0.04
Li     1  0.1588430000000  0.4010940000000  0.0792500000000 1.0  -0.04
O      2 -0.0838380000000 -0.0829450000000  0.2435690000000 1.0   0.02
O      2 -0.0165770000000 -0.3785690000000  0.2962930000000 1.0  -0.00
O      2  0.2087150000000 -0.2049610000000  0.5235180000000 1.0   0.04
O      2 -0.3540850000000 -0.3139530000000  0.4380390000000 1.0   0.03
O      2 -0.0838380000000  0.2435690000000 -0.0829450000000 1.0   0.02
O      2 -0.0165770000000  0.2962930000000 -0.3785690000000 1.0  -0.00
O      2  0.2087150000000  0.5235180000000 -0.2049610000000 1.0   0.04
O      2 -0.3540850000000  0.4380390000000 -0.3139530000000 1.0   0.03
O      2 -0.1048460000000 -0.2684680000000 -0.0199340000000 1.0   0.02
O      2 -0.5360820000000 -0.3950620000000  0.1197480000000 1.0   0.01
O      2 -0.2111440000000 -0.5758770000000  0.0929240000000 1.0   0.02
O      2 -0.1048460000000 -0.0199340000000 -0.2684680000000 1.0   0.02
O      2 -0.5360820000000  0.1197480000000 -0.3950620000000 1.0   0.01
O      2 -0.2111440000000  0.0929240000000 -0.5758770000000 1.0   0.02
O      2  0.3903160000000  0.0283800000000  0.0283800000000 1.0   0.15
O      2  0.3318080000000  0.2751420000000  0.2751420000000 1.0   0.16
P      3 -0.0613820000000 -0.2381150000000  0.3811640000000 1.0   0.02
P      3 -0.0613820000000  0.3811640000000 -0.2381150000000 1.0   0.02
P      3 -0.2377560000000 -0.4074890000000  0.1088180000000 1.0   0.01
P      3 -0.2377560000000  0.1088180000000 -0.4074890000000 1.0   0.01
Fe     4 -0.0368890000000 -0.0115400000000 -0.0115400000000 1.0   3.85
Fe     4  0.5136650000000 -0.3334830000000 -0.3334830000000 1.0   3.88
Fe     4 -0.5464470000000  0.4239150000000  0.4239150000000 1.0   3.87
Fe     4 -0.4067690000000  0.1849590000000  0.1849590000000 1.0   3.91
END
