TITL 4LFP-201124-104229-ea74f6 0.0321 152.607249 -6.07396037E+003 8.00000 8.09804 14 (Cc) n - 1
REM
REM Run started: Tue, 24 Nov 2020 11:22:02 +0000 in /lustre/scratch/uccabz1/launch_tmp/launcher_2020-11-24-10-42-27-489564
REM CASTEP 20.1 from code version af48c487+ pr-geom-scf-spinfix Tue Jun 2 15:39:59 2020 +0100
REM Functional Perdew Burke Ernzerhof Relativity Koelling-Harmon Dispersion off
REM Cut-off 300.0000 eV Grid scale 1.7500 Gmax 15.5288 1/A FBSC none
REM MP grid 4 4 3 Offset 0.000 0.000 0.000 No. kpts 16 Spacing 0.07
REM Total runtime: 2610.7 s
REM Overall efficiency: 92.125 %
REM
REM 4LFP.cell (a815d5d25b9f25a0a111bfe3624e67be)
REM
REM compiler GCC version 4.9.2
REM options -cpp -iprefix /lustre/shared/ucl/apps/gcc/4.9.2/bin/../lib/gcc/x86_64-unknown-linux-gnu/4.9.2/ -mtune=corei7 -march=x86-64 -g -Og
REM COMMAND_LINE
REM seed 2145556193 250862175 101419941 -1729978594 1797022414 -791125145 2120044701 -1296096947 723679579 1118257652 -232197845 538443299
REM
REM P 3|1.8|4|5|5|30:31:32(qc=5)
REM O 2|1.5|12|13|15|20:21(qc=5)
REM Li 1|1.3|8|9|10|10U:20(qc=5)
REM Fe 3|2.2|2.0|1.0|8|9|10|40:41:32(qc=5)
REM Fe d:4.0 
REM
CELL 1.54180    5.38272    5.38272    6.27220   98.38013   98.38013  118.78585
LATT -1
SFAC Li O  P  Fe 
Li     1 -0.0206150000000  0.0812110000000  0.4181370000000 1.0  -0.04
Li     1  0.0812110000000 -0.0206150000000 -0.0818630000000 1.0  -0.04
O      2  0.2870830000000 -0.2746920000000 -0.4155610000000 1.0   0.04
O      2  0.2232570000000 -0.3121230000000 -0.0393260000000 1.0   0.04
O      2  0.2149220000000 -0.7395470000000 -0.2836060000000 1.0   0.03
O      2  0.6893350000000 -0.2761680000000 -0.1436290000000 1.0   0.04
O      2 -0.2746920000000  0.2870830000000  0.0844390000000 1.0   0.04
O      2 -0.3121230000000  0.2232570000000  0.4606740000000 1.0   0.04
O      2 -0.7395470000000  0.2149220000000  0.2163940000000 1.0   0.03
O      2 -0.2761680000000  0.6893350000000  0.3563710000000 1.0   0.04
P      3  0.3584290000000 -0.3968610000000 -0.2212850000000 1.0   0.00
P      3 -0.3968610000000  0.3584290000000  0.2787150000000 1.0   0.00
Fe     4  0.2971680000000 -0.3492200000000  0.2690210000000 1.0   3.88
Fe     4 -0.3492200000000  0.2971680000000 -0.2309790000000 1.0   3.88
END
