TITL 4LFP-201124-114409-3644be 0.0466 156.682482 -6.07367172E+003 8.00000 8.08511 14 (Cc) n - 1
REM
REM Run started: Tue, 24 Nov 2020 12:35:12 +0000 in /lustre/scratch/uccabz1/launch_tmp/launcher_2020-11-24-11-44-05-960844
REM CASTEP 20.1 from code version af48c487+ pr-geom-scf-spinfix Tue Jun 2 15:39:59 2020 +0100
REM Functional Perdew Burke Ernzerhof Relativity Koelling-Harmon Dispersion off
REM Cut-off 300.0000 eV Grid scale 1.7500 Gmax 15.5288 1/A FBSC none
REM MP grid 3 3 3 Offset 0.000 0.000 0.000 No. kpts 10 Spacing 0.07
REM Total runtime: 3784.26 s
REM Overall efficiency: 69.6667 %
REM
REM 4LFP.cell (a815d5d25b9f25a0a111bfe3624e67be)
REM
REM compiler GCC version 4.9.2
REM options -cpp -iprefix /lustre/shared/ucl/apps/gcc/4.9.2/bin/../lib/gcc/x86_64-unknown-linux-gnu/4.9.2/ -mtune=corei7 -march=x86-64 -g -Og
REM COMMAND_LINE
REM seed -1158415745 -1607114602 -1551336008 1366562865 -1875297087 -530719577 -2108576319 730657211 232455192 1725186798 -1297543370 77525163
REM
REM P 3|1.8|4|5|5|30:31:32(qc=5)
REM O 2|1.5|12|13|15|20:21(qc=5)
REM Li 1|1.3|8|9|10|10U:20(qc=5)
REM Fe 3|2.2|2.0|1.0|8|9|10|40:41:32(qc=5)
REM Fe d:4.0 
REM
CELL 1.54180    5.60224    5.60224    5.21981   97.67755   97.67755  101.86198
LATT -1
SFAC Li O  P  Fe 
Li     1  0.0838250000000 -0.3858350000000  0.3109040000000 1.0  -0.02
Li     1  0.1141650000000 -0.4161750000000 -0.1890960000000 1.0  -0.02
O      2  0.0543770000000  0.3105690000000  0.0364040000000 1.0   0.03
O      2  0.4701890000000  0.1902940000000  0.1468400000000 1.0   0.06
O      2  0.0578280000000 -0.1309080000000  0.0780520000000 1.0   0.04
O      2  0.2179620000000  0.0367390000000 -0.3067610000000 1.0   0.05
O      2 -0.1894310000000 -0.4456230000000 -0.4635960000000 1.0   0.03
O      2 -0.3097060000000 -0.0298110000000 -0.3531600000000 1.0   0.06
O      2 -0.6309080000000 -0.4421720000000 -0.4219480000000 1.0   0.04
O      2 -0.4632610000000 -0.2820380000000 -0.8067610000000 1.0   0.05
P      3  0.2023640000000  0.1055400000000 -0.0148920000000 1.0   0.01
P      3 -0.3944600000000 -0.2976360000000 -0.5148920000000 1.0   0.01
Fe     4  0.5042890000000  0.2330970000000 -0.4399610000000 1.0   3.83
Fe     4 -0.2669030000000  0.0042890000000  0.0600390000000 1.0   3.83
END
