TITL 4LFP-201124-091628-8746b9 -0.0479 153.329464 -6.07316638E+003 8.00000 8.08566 14 (P-1) n - 1
REM
REM Run started: Tue, 24 Nov 2020 10:33:53 +0000 in /lustre/scratch/uccabz1/launch_tmp/launcher_2020-11-24-09-12-33-571901
REM CASTEP 20.1 from code version af48c487+ pr-geom-scf-spinfix Tue Jun 2 15:39:59 2020 +0100
REM Functional Perdew Burke Ernzerhof Relativity Koelling-Harmon Dispersion off
REM Cut-off 300.0000 eV Grid scale 1.7500 Gmax 15.5288 1/A FBSC none
REM MP grid 4 4 2 Offset 0.000 0.000 0.000 No. kpts 16 Spacing 0.07
REM Total runtime: 4948.55 s
REM Overall efficiency: 94.8571 %
REM
REM 4LFP.cell (a815d5d25b9f25a0a111bfe3624e67be)
REM
REM compiler GCC version 4.9.2
REM options -cpp -iprefix /lustre/shared/ucl/apps/gcc/4.9.2/bin/../lib/gcc/x86_64-unknown-linux-gnu/4.9.2/ -mtune=corei7 -march=x86-64 -g -Og
REM COMMAND_LINE
REM seed -152564625 205250359 -1083163278 453741919 -1229425988 1998768771 1715576227 -149134094 -517890886 -740814512 927243768 360800297
REM
REM P 3|1.8|4|5|5|30:31:32(qc=5)
REM O 2|1.5|12|13|15|20:21(qc=5)
REM Li 1|1.3|8|9|10|10U:20(qc=5)
REM Fe 3|2.2|2.0|1.0|8|9|10|40:41:32(qc=5)
REM Fe d:4.0 
REM
CELL 1.54180    4.12220    4.80533    8.10224  106.76233   93.44249   90.63007
LATT -1
SFAC Li O  P  Fe 
Li     1  0.0000000000000 -0.5000000000000  0.0000000000000 1.0  -0.01
Li     1  0.5000000000000  0.0000000000000  0.0000000000000 1.0  -0.03
O      2  0.7196960000000 -0.1306910000000  0.3935770000000 1.0   0.06
O      2  0.6229560000000 -0.6105480000000  0.1542660000000 1.0   0.02
O      2  0.2444570000000 -0.4552670000000  0.3971540000000 1.0   0.06
O      2  0.2504260000000 -0.1722870000000  0.1751930000000 1.0   0.03
O      2 -0.7196960000000  0.1306910000000 -0.3935770000000 1.0   0.06
O      2 -0.6229560000000  0.6105480000000 -0.1542660000000 1.0   0.02
O      2 -0.2444570000000  0.4552670000000 -0.3971540000000 1.0   0.06
O      2 -0.2504260000000  0.1722870000000 -0.1751930000000 1.0   0.03
P      3  0.4621530000000 -0.3470960000000  0.2770880000000 1.0   0.02
P      3 -0.4621530000000  0.3470960000000 -0.2770880000000 1.0   0.02
Fe     4 -0.0156020000000 -0.1787150000000 -0.3726180000000 1.0   3.82
Fe     4  0.0156020000000  0.1787150000000  0.3726180000000 1.0   3.82
END
