TITL 4LFP-201124-080149-35cc0a -0.0013 157.783510 -6.07424706E+003 8.00000 8.08770 14 (P-1) n - 1
REM
REM Run started: Tue, 24 Nov 2020 12:11:05 +0000 in /lustre/scratch/uccabz1/launch_tmp/launcher_2020-11-24-10-23-07-633424
REM CASTEP 20.1 from code version af48c487+ pr-geom-scf-spinfix Tue Jun 2 15:39:59 2020 +0100
REM Functional Perdew Burke Ernzerhof Relativity Koelling-Harmon Dispersion off
REM Cut-off 300.0000 eV Grid scale 1.7500 Gmax 15.5288 1/A FBSC none
REM MP grid 3 4 3 Offset 0.000 0.000 0.000 No. kpts 18 Spacing 0.07
REM Total runtime: 14928.9 s
REM Overall efficiency: 96.4545 %
REM
REM
REM
REM compiler GCC version 4.9.2
REM options -cpp -iprefix /scratch/UCL/applications/gcc/4.9.2/bin/../lib/gcc/x86_64-unknown-linux-gnu/4.9.2/ -mtune=corei7 -march=x86-64 -g -O2
REM COMMAND_LINE
REM seed -1545498525 1019736976 -1718907465 1021844112 -1786764156 232092875 -1231946876 -658696643 660556572 -1719622459 1996489109 1422618030
REM
REM P 3|1.8|4|5|5|30:31:32(qc=5)
REM O 2|1.5|12|13|15|20:21(qc=5)
REM Li 1|1.3|8|9|10|10U:20(qc=5)
REM Fe 3|2.2|2.0|1.0|8|9|10|40:41:32(qc=5)
REM Fe d:4.0 
REM
CELL 1.54180    4.94639    6.33160    7.52289   42.27673   85.71645   89.07362
LATT -1
SFAC Li O  P  Fe 
Li     1 -0.2024180000000  0.1861140000000 -0.1933660000000 1.0  -0.03
Li     1  0.2024180000000 -0.1861140000000  0.1933660000000 1.0  -0.03
O      2 -0.1655440000000  0.2037580000000  0.1677990000000 1.0   0.05
O      2 -0.6211230000000 -0.1175550000000  0.3656130000000 1.0   0.04
O      2 -0.2336940000000 -0.1866520000000  0.1719090000000 1.0   0.03
O      2 -0.2028360000000 -0.3874820000000  0.6124310000000 1.0   0.04
O      2  0.1655440000000 -0.2037580000000 -0.1677990000000 1.0   0.05
O      2  0.6211230000000  0.1175550000000 -0.3656130000000 1.0   0.04
O      2  0.2336940000000  0.1866520000000 -0.1719090000000 1.0   0.03
O      2  0.2028360000000  0.3874820000000 -0.6124310000000 1.0   0.04
P      3 -0.3090730000000 -0.1233360000000  0.3360630000000 1.0   0.02
P      3  0.3090730000000  0.1233360000000 -0.3360630000000 1.0   0.02
Fe     4 -0.1723750000000  0.4314100000000  0.2521050000000 1.0   3.85
Fe     4  0.1723750000000 -0.4314100000000 -0.2521050000000 1.0   3.85
END
