TITL 4LFP_actual-201126-160528-8163c9 -0.0084 295.530454 -1.21475881E+004 16.0000 16.1959 28 (P21) n - 1
REM
REM Run started: Thu, 26 Nov 2020 18:16:00 +0000 in /lustre/scratch/uccabz1/launch_tmp/launcher_2020-11-26-16-05-23-206085
REM CASTEP 20.1 from code version af48c487+ pr-geom-scf-spinfix Tue Jun 2 15:39:59 2020 +0100
REM Functional Perdew Burke Ernzerhof Relativity Koelling-Harmon Dispersion off
REM Cut-off 300.0000 eV Grid scale 1.7500 Gmax 15.5288 1/A FBSC none
REM MP grid 4 2 2 Offset 0.000 0.000 0.000 No. kpts 4 Spacing 0.07
REM Total runtime: 9332.49 s
REM Overall efficiency: 79.125 %
REM
REM 4LFP_actual.cell (cb690b6ff984803026f07b083c6867a4)
REM
REM compiler GCC version 4.9.2
REM options -cpp -iprefix /lustre/shared/ucl/apps/gcc/4.9.2/bin/../lib/gcc/x86_64-unknown-linux-gnu/4.9.2/ -mtune=corei7 -march=x86-64 -g -Og
REM COMMAND_LINE
REM seed -578626953 1635481875 1787458183 -822054574 1098964541 1347567690 1279150331 805574495 -200573800 1806783979 1209375260 708858957
REM
REM P 3|1.8|4|5|5|30:31:32(qc=5)
REM O 2|1.5|12|13|15|20:21(qc=5)
REM Li 1|1.3|8|9|10|10U:20(qc=5)
REM Fe 3|2.2|2.0|1.0|8|9|10|40:41:32(qc=5)
REM Fe d:4.0 
REM
CELL 1.54180    4.90870    8.04413    7.63604   90.00000   90.00000  101.43781
LATT -1
SFAC Li O  P  Fe 
Li     1 -0.4762210000000 -0.3629910000000 -0.5042530000000 1.0  -0.05
Li     1  0.4762210000000  0.3629910000000 -0.0042530000000 1.0  -0.05
Li     1 -0.0569040000000  0.1698710000000  0.5123650000000 1.0  -0.04
Li     1  0.0569040000000 -0.1698710000000  0.0123650000000 1.0  -0.04
O      2 -0.1053970000000  0.1981910000000 -0.0341510000000 1.0   0.05
O      2 -0.1934580000000  0.1041890000000  0.2872380000000 1.0   0.03
O      2  0.2278950000000  0.0372180000000  0.1207320000000 1.0   0.04
O      2  0.2081970000000  0.3372150000000  0.2024810000000 1.0   0.03
O      2  0.1053970000000 -0.1981910000000 -0.5341510000000 1.0   0.05
O      2  0.1934580000000 -0.1041890000000 -0.2127620000000 1.0   0.03
O      2 -0.2278950000000 -0.0372180000000 -0.3792680000000 1.0   0.04
O      2 -0.2081970000000 -0.3372150000000 -0.2975190000000 1.0   0.03
O      2 -0.3226650000000  0.4226030000000 -0.5503650000000 1.0   0.04
O      2 -0.4197190000000  0.3137550000000 -0.2386140000000 1.0   0.04
O      2 -0.7796020000000  0.4404760000000 -0.4117690000000 1.0   0.04
O      2 -0.6808830000000  0.1509600000000 -0.4852030000000 1.0   0.03
O      2  0.3226650000000 -0.4226030000000 -0.0503650000000 1.0   0.04
O      2  0.4197190000000 -0.3137550000000  0.2613860000000 1.0   0.04
O      2  0.7796020000000 -0.4404760000000  0.0882310000000 1.0   0.04
O      2  0.6808830000000 -0.1509600000000  0.0147970000000 1.0   0.03
P      3  0.0286200000000  0.1655640000000  0.1456140000000 1.0   0.02
P      3 -0.0286200000000 -0.1655640000000 -0.3543860000000 1.0   0.02
P      3 -0.5480350000000  0.3302490000000 -0.4253460000000 1.0   0.02
P      3  0.5480350000000 -0.3302490000000  0.0746540000000 1.0   0.02
Fe     4  0.0237340000000 -0.4760650000000  0.3202710000000 1.0   3.88
Fe     4 -0.0237340000000  0.4760650000000 -0.1797290000000 1.0   3.88
Fe     4  0.4333480000000 -0.0356120000000  0.3477410000000 1.0   3.87
Fe     4 -0.4333480000000  0.0356120000000 -0.1522590000000 1.0   3.87
END
