TITL 4LFP-201124-122009-647ad1 -0.0764 138.531782 -6.07237740E+003 8.00000 8.08381 14 (C2/c) n - 1
REM
REM Run started: Tue, 24 Nov 2020 13:14:26 +0000 in /lustre/scratch/uccabz1/launch_tmp/launcher_2020-11-24-12-20-07-034147
REM CASTEP 20.1 from code version af48c487+ pr-geom-scf-spinfix Tue Jun 2 15:39:59 2020 +0100
REM Functional Perdew Burke Ernzerhof Relativity Koelling-Harmon Dispersion off
REM Cut-off 300.0000 eV Grid scale 1.7500 Gmax 15.5288 1/A FBSC none
REM MP grid 4 4 3 Offset 0.000 0.000 0.000 No. kpts 16 Spacing 0.07
REM Total runtime: 3824.45 s
REM Overall efficiency: 83.2857 %
REM
REM 4LFP.cell (a815d5d25b9f25a0a111bfe3624e67be)
REM
REM compiler GCC version 4.9.2
REM options -cpp -iprefix /lustre/shared/ucl/apps/gcc/4.9.2/bin/../lib/gcc/x86_64-unknown-linux-gnu/4.9.2/ -mtune=corei7 -march=x86-64 -g -Og
REM COMMAND_LINE
REM seed -1451428068 409577683 -880969449 1594552518 -1844865456 -388851982 -810363755 -187510398 352891367 -570410028 -899097652 996942193
REM
REM P 3|1.8|4|5|5|30:31:32(qc=5)
REM O 2|1.5|12|13|15|20:21(qc=5)
REM Li 1|1.3|8|9|10|10U:20(qc=5)
REM Fe 3|2.2|2.0|1.0|8|9|10|40:41:32(qc=5)
REM Fe d:4.0 
REM
CELL 1.54180    5.29685    5.29685    5.48801   91.66745   91.66745  115.70323
LATT -1
SFAC Li O  P  Fe 
Li     1  0.0575170000000 -0.0575170000000 -0.2500000000000 1.0  -0.03
Li     1 -0.0575170000000  0.0575170000000  0.2500000000000 1.0  -0.03
O      2 -0.0119830000000 -0.2895060000000 -0.6011960000000 1.0   0.03
O      2  0.4876340000000  0.2169680000000 -0.4138940000000 1.0   0.05
O      2  0.2895060000000  0.0119830000000  0.1011960000000 1.0   0.03
O      2 -0.2169680000000 -0.4876340000000 -0.0861060000000 1.0   0.05
O      2  0.0119830000000  0.2895060000000  0.6011960000000 1.0   0.03
O      2 -0.4876340000000 -0.2169680000000  0.4138940000000 1.0   0.05
O      2 -0.2895060000000 -0.0119830000000 -0.1011960000000 1.0   0.03
O      2  0.2169680000000  0.4876340000000  0.0861060000000 1.0   0.05
P      3 -0.2488340000000  0.2488340000000 -0.2500000000000 1.0   0.01
P      3  0.2488340000000 -0.2488340000000  0.2500000000000 1.0   0.01
Fe     4  0.4197130000000 -0.4197130000000 -0.2500000000000 1.0   3.85
Fe     4 -0.4197130000000  0.4197130000000  0.2500000000000 1.0   3.85
END
