TITL 4LFP-201124-073812-5da35f 0.0075 143.360059 -6.07390903E+003 8.00000 8.12930 14 (P21212) n - 1
REM
REM Run started: Tue, 24 Nov 2020 07:59:16 +0000 in /lustre/scratch/uccabz1/launch_tmp/launcher_2020-11-24-07-38-09-442230
REM CASTEP 20.1 from code version af48c487+ pr-geom-scf-spinfix Tue Jun 2 15:39:59 2020 +0100
REM Functional Perdew Burke Ernzerhof Relativity Koelling-Harmon Dispersion off
REM Cut-off 300.0000 eV Grid scale 1.7500 Gmax 15.5288 1/A FBSC none
REM MP grid 4 4 3 Offset 0.000 0.000 0.000 No. kpts 8 Spacing 0.07
REM Total runtime: 1654.84 s
REM Overall efficiency: 90.6667 %
REM
REM 4LFP.cell (a815d5d25b9f25a0a111bfe3624e67be)
REM
REM compiler GCC version 4.9.2
REM options -cpp -iprefix /lustre/shared/ucl/apps/gcc/4.9.2/bin/../lib/gcc/x86_64-unknown-linux-gnu/4.9.2/ -mtune=corei7 -march=x86-64 -g -Og
REM COMMAND_LINE
REM seed 1443259643 -461889628 1663586670 -1600252659 937673849 2093531149 -1174151888 -73857876 249927166 -558922164 1725201937 1633174347
REM
REM P 3|1.8|4|5|5|30:31:32(qc=5)
REM O 2|1.5|12|13|15|20:21(qc=5)
REM Li 1|1.3|8|9|10|10U:20(qc=5)
REM Fe 3|2.2|2.0|1.0|8|9|10|40:41:32(qc=5)
REM Fe d:4.0 
REM
CELL 1.54180    4.48832    4.50397    7.09168   90.00000   90.00000   90.00000
LATT -1
SFAC Li O  P  Fe 
Li     1 -0.0000000000000  0.0000000000000 -0.0112520000000 1.0  -0.03
Li     1 -0.5000000000000  0.5000000000000  0.0112520000000 1.0  -0.03
O      2 -0.1915160000000  0.3004040000000 -0.3850550000000 1.0   0.05
O      2 -0.2108600000000 -0.2980850000000 -0.1363840000000 1.0   0.02
O      2  0.1915160000000 -0.3004040000000 -0.3850550000000 1.0   0.05
O      2  0.2108600000000  0.2980850000000 -0.1363840000000 1.0   0.02
O      2 -0.3084840000000  0.8004040000000  0.3850550000000 1.0   0.05
O      2 -0.2891400000000  0.2019150000000  0.1363840000000 1.0   0.02
O      2  0.3084840000000 -0.8004040000000  0.3850550000000 1.0   0.05
O      2  0.2891400000000 -0.2019150000000  0.1363840000000 1.0   0.02
P      3 -0.5000000000000  0.0000000000000  0.2561190000000 1.0   0.01
P      3 -0.0000000000000  0.5000000000000 -0.2561190000000 1.0   0.01
Fe     4 -0.5000000000000  0.0000000000000 -0.3371390000000 1.0   3.86
Fe     4 -0.0000000000000  0.5000000000000  0.3371390000000 1.0   3.86
END
