TITL 4LFP_actual-201126-172110-933087 -0.0149 339.623119 -1.21447697E+004 16.0000 16.3069 28 (C2221) n - 1
REM
REM Run started: Thu, 26 Nov 2020 21:24:12 +0000 in /lustre/scratch/uccabz1/launch_tmp/launcher_2020-11-26-18-28-47-463880
REM CASTEP 20.1 from code version af48c487+ pr-geom-scf-spinfix Tue Jun 2 15:39:59 2020 +0100
REM Functional Perdew Burke Ernzerhof Relativity Koelling-Harmon Dispersion off
REM Cut-off 300.0000 eV Grid scale 1.7500 Gmax 15.5288 1/A FBSC none
REM MP grid 3 3 2 Offset 0.000 0.000 0.000 No. kpts 4 Spacing 0.07
REM Total runtime: 13922.4 s
REM Overall efficiency: 79.3571 %
REM
REM
REM
REM compiler GCC version 4.9.2
REM options -cpp -iprefix /scratch/UCL/applications/gcc/4.9.2/bin/../lib/gcc/x86_64-unknown-linux-gnu/4.9.2/ -mtune=corei7 -march=x86-64 -g -O2
REM COMMAND_LINE
REM seed 1832377042 -1652603528 -198281575 1624565082 1603969158 2034860991 -1143411041 -460364613 207919432 -1680943990 -1391972216 1893002156
REM
REM P 3|1.8|4|5|5|30:31:32(qc=5)
REM O 2|1.5|12|13|15|20:21(qc=5)
REM Li 1|1.3|8|9|10|10U:20(qc=5)
REM Fe 3|2.2|2.0|1.0|8|9|10|40:41:32(qc=5)
REM Fe d:4.0 
REM
CELL 1.54180    5.26828    7.01004    9.92343   90.00000   90.00000  112.07169
LATT -1
SFAC Li O  P  Fe 
Li     1 -0.0897340000000  0.1514770000000 -0.3409920000000 1.0  -0.02
Li     1  0.0897340000000 -0.1514770000000  0.1590080000000 1.0  -0.02
Li     1  0.2412110000000  0.1514770000000 -0.1590080000000 1.0  -0.02
Li     1 -0.2412110000000 -0.1514770000000  0.3409920000000 1.0  -0.02
O      2  0.1013430000000 -0.3555120000000 -0.4639250000000 1.0   0.05
O      2  0.2019790000000 -0.0165420000000 -0.3348330000000 1.0   0.01
O      2 -0.2630300000000 -0.2014910000000 -0.4610830000000 1.0   0.03
O      2 -0.1013430000000  0.3555120000000  0.0360750000000 1.0   0.05
O      2 -0.2019790000000  0.0165420000000  0.1651670000000 1.0   0.01
O      2  0.2630300000000  0.2014910000000  0.0389170000000 1.0   0.03
O      2 -0.4568550000000 -0.3555120000000 -0.0360750000000 1.0   0.05
O      2 -0.2185210000000 -0.0165420000000 -0.1651670000000 1.0   0.01
O      2  0.0615390000000 -0.2014910000000 -0.0389170000000 1.0   0.03
O      2  0.4568550000000  0.3555120000000  0.4639250000000 1.0   0.05
O      2  0.2185210000000  0.0165420000000  0.3348330000000 1.0   0.01
O      2 -0.0615390000000  0.2014910000000  0.4610830000000 1.0   0.03
O      2  0.1764580000000  0.3529160000000  0.2500000000000 1.0   0.03
O      2 -0.1764580000000 -0.3529160000000 -0.2500000000000 1.0   0.03
O      2 -0.1869220000000 -0.3738450000000  0.2500000000000 1.0   0.18
O      2  0.1869220000000  0.3738450000000 -0.2500000000000 1.0   0.18
P      3 -0.0117400000000 -0.2143710000000 -0.3855800000000 1.0   0.01
P      3  0.0117400000000  0.2143710000000  0.1144200000000 1.0   0.01
P      3 -0.2026310000000 -0.2143710000000 -0.1144200000000 1.0   0.01
P      3  0.2026310000000  0.2143710000000  0.3855800000000 1.0   0.01
Fe     4  0.4061280000000  0.5509730000000 -0.3871870000000 1.0   3.82
Fe     4 -0.4061280000000 -0.5509730000000  0.1128130000000 1.0   3.82
Fe     4  0.1448450000000  0.5509730000000 -0.1128130000000 1.0   3.82
Fe     4 -0.1448450000000 -0.5509730000000  0.3871870000000 1.0   3.82
END
