TITL 4LFP-201124-100638-15cff3 -0.0129 146.726472 -6.07191008E+003 8.00000 8.10319 14 (Cm) n - 1
REM
REM Run started: Tue, 24 Nov 2020 11:03:14 +0000 in /lustre/scratch/uccabz1/launch_tmp/launcher_2020-11-24-10-06-36-804613
REM CASTEP 20.1 from code version af48c487+ pr-geom-scf-spinfix Tue Jun 2 15:39:59 2020 +0100
REM Functional Perdew Burke Ernzerhof Relativity Koelling-Harmon Dispersion off
REM Cut-off 300.0000 eV Grid scale 1.7500 Gmax 15.5288 1/A FBSC none
REM MP grid 4 3 3 Offset 0.000 0.000 0.000 No. kpts 12 Spacing 0.07
REM Total runtime: 3914.33 s
REM Overall efficiency: 94.8333 %
REM
REM 4LFP.cell (a815d5d25b9f25a0a111bfe3624e67be)
REM
REM compiler GCC version 4.9.2
REM options -cpp -iprefix /lustre/shared/ucl/apps/gcc/4.9.2/bin/../lib/gcc/x86_64-unknown-linux-gnu/4.9.2/ -mtune=corei7 -march=x86-64 -g -Og
REM COMMAND_LINE
REM seed -1567763427 1553838547 2110249901 1488727517 1880064097 -370812841 -1151875057 -1852747170 601590490 -550824563 579210454 -2128193422
REM
REM P 3|1.8|4|5|5|30:31:32(qc=5)
REM O 2|1.5|12|13|15|20:21(qc=5)
REM Li 1|1.3|8|9|10|10U:20(qc=5)
REM Fe 3|2.2|2.0|1.0|8|9|10|40:41:32(qc=5)
REM Fe d:4.0 
REM
CELL 1.54180    4.67398    6.06768    6.06768   74.99459   68.11495   68.11495
LATT -1
SFAC Li O  P  Fe 
Li     1  0.1897140000000 -0.0983620000000  0.3911600000000 1.0  -0.04
Li     1  0.1897140000000  0.3911600000000 -0.0983620000000 1.0  -0.04
O      2 -0.1719450000000 -0.3353160000000  0.0268160000000 1.0   0.02
O      2 -0.3975990000000 -0.5894450000000 -0.1100510000000 1.0   0.02
O      2 -0.7352730000000 -0.3756600000000  0.2635420000000 1.0   0.02
O      2 -0.1719450000000  0.0268160000000 -0.3353160000000 1.0   0.02
O      2 -0.3975990000000 -0.1100510000000 -0.5894450000000 1.0   0.02
O      2 -0.7352730000000  0.2635420000000 -0.3756600000000 1.0   0.02
O      2  0.0575960000000  0.1810700000000  0.1810700000000 1.0   0.17
O      2  0.3584450000000 -0.1448210000000 -0.1448210000000 1.0   0.01
P      3 -0.4714780000000 -0.3784480000000  0.0207800000000 1.0   0.00
P      3 -0.4714780000000  0.0207800000000 -0.3784480000000 1.0   0.00
Fe     4 -0.1838090000000  0.0468490000000  0.0468490000000 1.0   3.91
Fe     4 -0.0504820000000  0.4017390000000  0.4017390000000 1.0   3.87
END
