TITL 4LFP-201124-132701-bb0c67 -0.0190 154.404596 -6.07106216E+003 8.00000 8.12270 14 (C2) n - 1
REM
REM Run started: Tue, 24 Nov 2020 14:49:55 +0000 in /lustre/scratch/uccabz1/launch_tmp/launcher_2020-11-24-13-26-55-488719
REM CASTEP 20.1 from code version af48c487+ pr-geom-scf-spinfix Tue Jun 2 15:39:59 2020 +0100
REM Functional Perdew Burke Ernzerhof Relativity Koelling-Harmon Dispersion off
REM Cut-off 300.0000 eV Grid scale 1.7500 Gmax 15.5288 1/A FBSC none
REM MP grid 4 4 3 Offset 0.000 0.000 0.000 No. kpts 24 Spacing 0.07
REM Total runtime: 5369.67 s
REM Overall efficiency: 95.4286 %
REM
REM 4LFP.cell (a815d5d25b9f25a0a111bfe3624e67be)
REM
REM compiler GCC version 4.9.2
REM options -cpp -iprefix /lustre/shared/ucl/apps/gcc/4.9.2/bin/../lib/gcc/x86_64-unknown-linux-gnu/4.9.2/ -mtune=corei7 -march=x86-64 -g -Og
REM COMMAND_LINE
REM seed 1001536526 -603974548 1180702272 -1026758015 -867938977 774556687 -1789506774 1793814828 456600922 173689370 1557586255 -1679676759
REM
REM P 3|1.8|4|5|5|30:31:32(qc=5)
REM O 2|1.5|12|13|15|20:21(qc=5)
REM Li 1|1.3|8|9|10|10U:20(qc=5)
REM Fe 3|2.2|2.0|1.0|8|9|10|40:41:32(qc=5)
REM Fe d:4.0 
REM
CELL 1.54180    5.03414    5.38579    6.53587   85.46523   80.26023   62.13730
LATT -1
SFAC Li O  P  Fe 
Li     1 -0.5132900000000  0.0265800000000  0.0000000000000 1.0  -0.05
Li     1  0.5601730000000 -0.1203460000000  0.5000000000000 1.0  -0.04
O      2 -0.0629000000000  0.5811830000000 -0.4194150000000 1.0   0.02
O      2  0.2901660000000  0.1287790000000 -0.2690740000000 1.0   0.02
O      2 -0.3090660000000  0.3397310000000 -0.1542880000000 1.0   0.03
O      2 -0.5182840000000  0.5811830000000  0.4194150000000 1.0   0.02
O      2 -0.4189450000000  0.1287790000000  0.2690740000000 1.0   0.02
O      2 -0.0306650000000  0.3397310000000  0.1542880000000 1.0   0.03
O      2 -0.0598600000000  0.1197190000000  0.5000000000000 1.0  -0.00
O      2  0.1038350000000 -0.2076690000000  0.0000000000000 1.0   0.29
P      3 -0.0382650000000  0.2974880000000 -0.3158750000000 1.0   0.00
P      3 -0.2592230000000  0.2974880000000  0.3158750000000 1.0   0.00
Fe     4  0.2664090000000 -0.4100600000000 -0.2452580000000 1.0   3.82
Fe     4  0.1436510000000 -0.4100600000000  0.2452580000000 1.0   3.82
END
