TITL 4LFP_actual-201126-225451-608330 -0.0220 301.976945 -1.21474490E+004 16.0000 16.1970 28 (P-1) n - 1
REM
REM Run started: Fri, 27 Nov 2020 04:25:47 +0000 in /lustre/scratch/uccabz1/launch_tmp/launcher_2020-11-26-22-54-46-848739
REM CASTEP 20.1 from code version af48c487+ pr-geom-scf-spinfix Tue Jun 2 15:39:59 2020 +0100
REM Functional Perdew Burke Ernzerhof Relativity Koelling-Harmon Dispersion off
REM Cut-off 300.0000 eV Grid scale 1.7500 Gmax 15.5288 1/A FBSC none
REM MP grid 3 3 2 Offset 0.000 0.000 0.000 No. kpts 9 Spacing 0.07
REM Total runtime: 21457.7 s
REM Overall efficiency: 79.1667 %
REM
REM 4LFP_actual.cell (cb690b6ff984803026f07b083c6867a4)
REM
REM compiler GCC version 4.9.2
REM options -cpp -iprefix /lustre/shared/ucl/apps/gcc/4.9.2/bin/../lib/gcc/x86_64-unknown-linux-gnu/4.9.2/ -mtune=corei7 -march=x86-64 -g -Og
REM COMMAND_LINE
REM seed 1490787355 -313106499 -189577020 231427451 277497575 1145307244 230384500 993534849 -691354927 1689187322 782790456 476010039
REM
REM P 3|1.8|4|5|5|30:31:32(qc=5)
REM O 2|1.5|12|13|15|20:21(qc=5)
REM Li 1|1.3|8|9|10|10U:20(qc=5)
REM Fe 3|2.2|2.0|1.0|8|9|10|40:41:32(qc=5)
REM Fe d:4.0 
REM
CELL 1.54180    4.82085    6.77979    9.40626   80.66538   95.26473   92.37138
LATT -1
SFAC Li O  P  Fe 
Li     1 -0.4697130000000 -0.2361930000000  0.3427870000000 1.0  -0.02
Li     1  0.4697130000000  0.2361930000000 -0.3427870000000 1.0  -0.02
Li     1  0.0000000000000  0.0000000000000 -0.5000000000000 1.0  -0.01
Li     1 -0.5000000000000  0.5000000000000  0.0000000000000 1.0  -0.07
O      2  0.1382040000000  0.3443770000000 -0.0394840000000 1.0   0.04
O      2 -0.3128630000000  0.2120020000000 -0.1556850000000 1.0   0.04
O      2  0.0995160000000  0.3168930000000 -0.3065370000000 1.0   0.03
O      2  0.1318190000000  0.0068730000000 -0.1200230000000 1.0   0.07
O      2 -0.1382040000000 -0.3443770000000  0.0394840000000 1.0   0.04
O      2  0.3128630000000 -0.2120020000000  0.1556850000000 1.0   0.04
O      2 -0.0995160000000 -0.3168930000000  0.3065370000000 1.0   0.03
O      2 -0.1318190000000 -0.0068730000000  0.1200230000000 1.0   0.07
O      2 -0.5779230000000 -0.3326440000000 -0.1948570000000 1.0   0.04
O      2 -0.1926390000000 -0.2306290000000 -0.3578070000000 1.0   0.05
O      2 -0.6459150000000 -0.3425010000000 -0.4731150000000 1.0   0.04
O      2 -0.6411600000000 -0.0185790000000 -0.3773410000000 1.0   0.01
O      2  0.5779230000000  0.3326440000000  0.1948570000000 1.0   0.04
O      2  0.1926390000000  0.2306290000000  0.3578070000000 1.0   0.05
O      2  0.6459150000000  0.3425010000000  0.4731150000000 1.0   0.04
O      2  0.6411600000000  0.0185790000000  0.3773410000000 1.0   0.01
P      3  0.0088020000000  0.2207730000000 -0.1592560000000 1.0   0.02
P      3 -0.0088020000000 -0.2207730000000  0.1592560000000 1.0   0.02
P      3 -0.5202350000000 -0.2264290000000 -0.3514850000000 1.0   0.01
P      3  0.5202350000000  0.2264290000000  0.3514850000000 1.0   0.01
Fe     4 -0.0017450000000  0.2872170000000  0.1603020000000 1.0   3.87
Fe     4  0.0017450000000 -0.2872170000000 -0.1603020000000 1.0   3.87
Fe     4  0.5000000000000  0.0000000000000  0.0000000000000 1.0   3.84
Fe     4  0.0000000000000 -0.5000000000000  0.5000000000000 1.0   3.85
END
