TITL 4LFP_actual-201126-071012-aa8572 0.0120 295.425234 -1.21485267E+004 16.0000 16.1942 28 (P1) n - 1
REM
REM Run started: Thu, 26 Nov 2020 21:17:56 +0000 in /scratch/scratch/mmm0366/launch_tmp/launcher_2020-11-26-07-09-36-885549
REM CASTEP 19.11| from code version Version unavailable
REM Functional Perdew Burke Ernzerhof Relativity Koelling-Harmon Dispersion off
REM Cut-off 300.0000 eV Grid scale 1.7500 Gmax 15.5288 1/A FBSC none
REM MP grid 3 3 2 Offset 0.000 0.000 0.000 No. kpts 9 Spacing 0.07
REM Total runtime: 38581.1 s
REM Overall efficiency: 77.1111 %
REM
REM 4LFP_actual.cell (cb690b6ff984803026f07b083c6867a4)
REM
REM compiler GCC version 4.9.2
REM options -cpp -iprefix /scratch/UCL/applications/gcc/4.9.2/bin/../lib/gcc/x86_64-unknown-linux-gnu/4.9.2/ -mtune=corei7 -march=x86-64 -g -O2
REM COMMAND_LINE
REM seed -1938634324 -1390273236 426948429 1615262066 -1826160142 -356649074 264053701 -356069389 -770320376 1628488811 -356283734 1411680585
REM
REM P 3|1.8|4|5|5|30:31:32(qc=5)
REM O 2|1.5|12|13|15|20:21(qc=5)
REM Li 1|1.3|8|9|10|10U:20(qc=5)
REM Fe 3|2.2|2.0|1.0|8|9|10|40:41:32(qc=5)
REM Fe d:4.0 
REM
CELL 1.54180    5.51797    6.43408    8.60829   81.12696   93.31816  101.84421
LATT -1
SFAC Li O  P  Fe 
Li     1 -0.1823750000000 -0.2016620000000 -0.4416640000000 1.0  -0.01
Li     1  0.1823750000000  0.2016620000000  0.4416640000000 1.0  -0.01
Li     1  0.3165070000000 -0.0837310000000 -0.3048250000000 1.0  -0.04
Li     1 -0.3165070000000  0.0837310000000  0.3048250000000 1.0  -0.04
O      2  0.2552320000000  0.4807000000000 -0.0002670000000 1.0   0.05
O      2 -0.0320330000000  0.1874130000000  0.1741460000000 1.0   0.03
O      2  0.3291920000000  0.1082060000000  0.0285150000000 1.0   0.06
O      2  0.4175980000000  0.2969200000000  0.2638570000000 1.0   0.02
O      2 -0.2552320000000 -0.4807000000000  0.0002670000000 1.0   0.05
O      2  0.0320330000000 -0.1874130000000 -0.1741460000000 1.0   0.03
O      2 -0.3291920000000 -0.1082060000000 -0.0285150000000 1.0   0.06
O      2 -0.4175980000000 -0.2969200000000 -0.2638570000000 1.0   0.02
O      2 -0.1919060000000  0.1173630000000 -0.4884910000000 1.0   0.01
O      2 -0.0629680000000  0.3025610000000 -0.2465420000000 1.0   0.07
O      2 -0.2421730000000  0.5045330000000 -0.4908460000000 1.0   0.03
O      2 -0.5088580000000  0.2041890000000 -0.3096840000000 1.0   0.04
O      2  0.1919060000000 -0.1173630000000  0.4884910000000 1.0   0.01
O      2  0.0629680000000 -0.3025610000000  0.2465420000000 1.0   0.07
O      2  0.2421730000000 -0.5045330000000  0.4908460000000 1.0   0.03
O      2  0.5088580000000 -0.2041890000000  0.3096840000000 1.0   0.04
P      3  0.2362320000000  0.2690810000000  0.1177220000000 1.0   0.01
P      3 -0.2362320000000 -0.2690810000000 -0.1177220000000 1.0   0.01
P      3 -0.2513530000000  0.2832930000000 -0.3917690000000 1.0   0.01
P      3  0.2513530000000 -0.2832930000000  0.3917690000000 1.0   0.01
Fe     4 -0.2888110000000 -0.4448790000000  0.2652780000000 1.0   3.88
Fe     4  0.2888110000000  0.4448790000000 -0.2652780000000 1.0   3.88
Fe     4 -0.2792130000000  0.2121130000000 -0.0442430000000 1.0   3.85
Fe     4  0.2792130000000 -0.2121130000000  0.0442430000000 1.0   3.85
END
