TITL 4LFP_actual-201126-190109-ed72ce -0.0104 322.551257 -1.21480024E+004 16.0000 16.2425 28 (C2) n - 1
REM
REM Run started: Fri, 27 Nov 2020 01:02:20 +0000 in /lustre/scratch/uccabz1/launch_tmp/launcher_2020-11-27-00-17-48-664734
REM CASTEP 20.1 from code version af48c487+ pr-geom-scf-spinfix Tue Jun 2 15:39:59 2020 +0100
REM Functional Perdew Burke Ernzerhof Relativity Koelling-Harmon Dispersion off
REM Cut-off 300.0000 eV Grid scale 1.7500 Gmax 15.5288 1/A FBSC none
REM MP grid 3 3 3 Offset 0.000 0.000 0.000 No. kpts 10 Spacing 0.07
REM Total runtime: 19711.3 s
REM Overall efficiency: 75.9091 %
REM
REM
REM
REM compiler GCC version 4.9.2
REM options -cpp -iprefix /scratch/UCL/applications/gcc/4.9.2/bin/../lib/gcc/x86_64-unknown-linux-gnu/4.9.2/ -mtune=corei7 -march=x86-64 -g -O2
REM COMMAND_LINE
REM seed -46618988 999997522 1717316550 1805439401 989037761 17267303 36345386 -516043549 1820079432 1183049228 -856075508 2042480718
REM
REM P 3|1.8|4|5|5|30:31:32(qc=5)
REM O 2|1.5|12|13|15|20:21(qc=5)
REM Li 1|1.3|8|9|10|10U:20(qc=5)
REM Fe 3|2.2|2.0|1.0|8|9|10|40:41:32(qc=5)
REM Fe d:4.0 
REM
CELL 1.54180    6.93624    6.93624    8.28772   64.55631   64.55631   85.29951
LATT -1
SFAC Li O  P  Fe 
Li     1 -0.1247240000000  0.4003600000000  0.2140600000000 1.0  -0.03
Li     1 -0.4003600000000  0.1247240000000 -0.2140600000000 1.0  -0.03
Li     1 -0.4761130000000 -0.2535550000000 -0.2869330000000 1.0  -0.03
Li     1  0.2535550000000  0.4761130000000  0.2869330000000 1.0  -0.03
O      2  0.4536600000000  0.1357140000000  0.0388790000000 1.0   0.03
O      2  0.1111050000000  0.1751840000000 -0.0156210000000 1.0   0.06
O      2  0.1228910000000  0.2557980000000  0.2469340000000 1.0   0.03
O      2  0.3288990000000  0.5083200000000 -0.1164340000000 1.0   0.02
O      2 -0.1357140000000 -0.4536600000000 -0.0388790000000 1.0   0.03
O      2 -0.1751840000000 -0.1111050000000  0.0156210000000 1.0   0.06
O      2 -0.2557980000000 -0.1228910000000 -0.2469340000000 1.0   0.03
O      2 -0.5083200000000 -0.3288990000000  0.1164340000000 1.0   0.02
O      2  0.0204890000000 -0.3100370000000  0.5179580000000 1.0   0.07
O      2  0.0025340000000 -0.3873820000000  0.2566770000000 1.0   0.03
O      2 -0.2163550000000 -0.6308830000000  0.6226560000000 1.0   0.02
O      2 -0.3186550000000 -0.2504900000000  0.4565220000000 1.0   0.03
O      2  0.3100370000000 -0.0204890000000 -0.5179580000000 1.0   0.07
O      2  0.3873820000000 -0.0025340000000 -0.2566770000000 1.0   0.03
O      2  0.6308830000000  0.2163550000000 -0.6226560000000 1.0   0.02
O      2  0.2504900000000  0.3186550000000 -0.4565220000000 1.0   0.03
P      3  0.2652160000000  0.2717040000000  0.0342240000000 1.0   0.01
P      3 -0.2717040000000 -0.2652160000000 -0.0342240000000 1.0   0.01
P      3 -0.1389820000000 -0.3977540000000  0.4675110000000 1.0   0.01
P      3  0.3977540000000  0.1389820000000 -0.4675110000000 1.0   0.01
Fe     4 -0.4304660000000 -0.0578680000000  0.2449850000000 1.0   3.88
Fe     4  0.0578680000000  0.4304660000000 -0.2449850000000 1.0   3.88
Fe     4  0.1301880000000 -0.1301880000000  0.0000000000000 1.0   3.86
Fe     4  0.0053890000000 -0.0053890000000  0.5000000000000 1.0   3.86
END
