TITL 4LFP-201124-092223-ef1006 0.0350 167.509980 -6.07141905E+003 8.00000 8.11064 14 (P-1) n - 1
REM
REM Run started: Tue, 24 Nov 2020 10:22:03 +0000 in /lustre/scratch/uccabz1/launch_tmp/launcher_2020-11-24-09-22-18-853109
REM CASTEP 20.1 from code version af48c487+ pr-geom-scf-spinfix Tue Jun 2 15:39:59 2020 +0100
REM Functional Perdew Burke Ernzerhof Relativity Koelling-Harmon Dispersion off
REM Cut-off 300.0000 eV Grid scale 1.7500 Gmax 15.5288 1/A FBSC none
REM MP grid 4 4 3 Offset 0.000 0.000 0.000 No. kpts 24 Spacing 0.07
REM Total runtime: 4209.49 s
REM Overall efficiency: 83.75 %
REM
REM 4LFP.cell (a815d5d25b9f25a0a111bfe3624e67be)
REM
REM compiler GCC version 4.9.2
REM options -cpp -iprefix /lustre/shared/ucl/apps/gcc/4.9.2/bin/../lib/gcc/x86_64-unknown-linux-gnu/4.9.2/ -mtune=corei7 -march=x86-64 -g -Og
REM COMMAND_LINE
REM seed -28470725 573548276 -1416258058 -227175502 1522549376 2018348745 560052410 -693018781 1010553383 385926598 -1358990649 -1259858266
REM
REM P 3|1.8|4|5|5|30:31:32(qc=5)
REM O 2|1.5|12|13|15|20:21(qc=5)
REM Li 1|1.3|8|9|10|10U:20(qc=5)
REM Fe 3|2.2|2.0|1.0|8|9|10|40:41:32(qc=5)
REM Fe d:4.0 
REM
CELL 1.54180    4.11873    6.08160   10.08755  136.97034  100.78876   87.84152
LATT -1
SFAC Li O  P  Fe 
Li     1 -0.0430140000000 -0.6092490000000 -0.1773730000000 1.0  -0.04
Li     1  0.0430140000000  0.6092490000000  0.1773730000000 1.0  -0.04
O      2  0.1582390000000  0.3594120000000  0.2353250000000 1.0   0.05
O      2  0.6724740000000  0.2539020000000  0.3481380000000 1.0   0.05
O      2  0.2039560000000 -0.2137980000000  0.0959530000000 1.0   0.01
O      2 -0.1582390000000 -0.3594120000000 -0.2353250000000 1.0   0.05
O      2 -0.6724740000000 -0.2539020000000 -0.3481380000000 1.0   0.05
O      2 -0.2039560000000  0.2137980000000 -0.0959530000000 1.0   0.01
O      2  1.0000000000000  1.0000000000000  0.5000000000000 1.0   0.21
O      2  0.5000000000000  0.0000000000000  0.0000000000000 1.0   0.01
P      3  0.3655110000000  0.0922750000000  0.1712440000000 1.0   0.01
P      3 -0.3655110000000 -0.0922750000000 -0.1712440000000 1.0   0.01
Fe     4 -0.8660420000000 -0.6641690000000 -0.4550760000000 1.0   3.82
Fe     4  0.8660420000000  0.6641690000000  0.4550760000000 1.0   3.82
END
