TITL 4LFP-201124-112857-455788 0.0357 165.947314 -6.07123587E+003 8.00000 8.34846 14 (I4/m) n - 1
REM
REM Run started: Tue, 24 Nov 2020 11:51:38 +0000 in /lustre/scratch/uccabz1/launch_tmp/launcher_2020-11-24-11-28-55-957299
REM CASTEP 20.1 from code version af48c487+ pr-geom-scf-spinfix Tue Jun 2 15:39:59 2020 +0100
REM Functional Perdew Burke Ernzerhof Relativity Koelling-Harmon Dispersion off
REM Cut-off 300.0000 eV Grid scale 1.7500 Gmax 15.5288 1/A FBSC none
REM MP grid 3 3 3 Offset 0.000 0.000 0.000 No. kpts 6 Spacing 0.07
REM Total runtime: 1563.8 s
REM Overall efficiency: 65 %
REM
REM 4LFP.cell (a815d5d25b9f25a0a111bfe3624e67be)
REM
REM compiler GCC version 4.9.2
REM options -cpp -iprefix /lustre/shared/ucl/apps/gcc/4.9.2/bin/../lib/gcc/x86_64-unknown-linux-gnu/4.9.2/ -mtune=corei7 -march=x86-64 -g -Og
REM COMMAND_LINE
REM seed 793574387 -72948481 1604897319 317333212 783400165 -2538654 1847716115 -382010340 445016198 -713165096 1117075366 -1231395477
REM
REM P 3|1.8|4|5|5|30:31:32(qc=5)
REM O 2|1.5|12|13|15|20:21(qc=5)
REM Li 1|1.3|8|9|10|10U:20(qc=5)
REM Fe 3|2.2|2.0|1.0|8|9|10|40:41:32(qc=5)
REM Fe d:4.0 
REM
CELL 1.54180    5.74258    5.74258    6.46618  116.36241  116.36241   90.00000
LATT -1
SFAC Li O  P  Fe 
Li     1 -0.2498400000000 -0.2498400000000 -0.4996810000000 1.0  -0.02
Li     1  0.2498400000000  0.2498400000000  0.4996810000000 1.0  -0.02
O      2 -0.2846240000000 -0.2280430000000  0.1971530000000 1.0   0.06
O      2 -0.0749520000000 -0.7845420000000  0.1971880000000 1.0   0.06
O      2  0.4817760000000 -0.5748040000000  0.1971530000000 1.0   0.06
O      2  0.2721400000000 -0.0182700000000  0.1971880000000 1.0   0.06
O      2  0.5748040000000  0.2846240000000 -0.1971530000000 1.0   0.06
O      2  0.0182700000000  0.0749520000000 -0.1971880000000 1.0   0.06
O      2  0.2280430000000 -0.4817760000000 -0.1971530000000 1.0   0.06
O      2  0.7845420000000 -0.2721400000000 -0.1971880000000 1.0   0.06
P      3  0.5000000000000  0.5000000000000  0.0000000000000 1.0   0.02
P      3  0.0000000000000  0.0000000000000  0.0000000000000 1.0   0.02
Fe     4 -0.4112130000000  0.0887870000000  0.1775730000000 1.0   3.76
Fe     4 -0.0887870000000  0.4112130000000 -0.1775730000000 1.0   3.76
END
