TITL 4LFP_actual-201126-142402-eb7dce -0.0070 291.994492 -1.21504655E+004 16.0000 16.3251 28 (Pc) n - 1
REM
REM Run started: Thu, 26 Nov 2020 18:42:29 +0000 in /lustre/scratch/uccabz1/launch_tmp/launcher_2020-11-26-14-23-52-855771
REM CASTEP 20.1 from code version af48c487+ pr-geom-scf-spinfix Tue Jun 2 15:39:59 2020 +0100
REM Functional Perdew Burke Ernzerhof Relativity Koelling-Harmon Dispersion off
REM Cut-off 300.0000 eV Grid scale 1.7500 Gmax 15.5288 1/A FBSC none
REM MP grid 4 3 2 Offset 0.000 0.000 0.000 No. kpts 6 Spacing 0.07
REM Total runtime: 16223.3 s
REM Overall efficiency: 97.25 %
REM
REM 4LFP_actual.cell (cb690b6ff984803026f07b083c6867a4)
REM
REM compiler GCC version 4.9.2
REM options -cpp -iprefix /lustre/shared/ucl/apps/gcc/4.9.2/bin/../lib/gcc/x86_64-unknown-linux-gnu/4.9.2/ -mtune=corei7 -march=x86-64 -g -Og
REM COMMAND_LINE
REM seed 1590470701 -853725723 2011678215 2089456784 1359679523 -1980612837 -13054880 385280935 2088905138 -948613307 -1778459066 -1576264051
REM
REM P 3|1.8|4|5|5|30:31:32(qc=5)
REM O 2|1.5|12|13|15|20:21(qc=5)
REM Li 1|1.3|8|9|10|10U:20(qc=5)
REM Fe 3|2.2|2.0|1.0|8|9|10|40:41:32(qc=5)
REM Fe d:4.0 
REM
CELL 1.54180    4.69578    6.01292   10.34314   91.03687   90.00000   90.00000
LATT -1
SFAC Li O  P  Fe 
Li     1  0.2692950000000  0.4673750000000 -0.3970410000000 1.0  -0.03
Li     1 -0.2692950000000  0.4673750000000  0.1029590000000 1.0  -0.03
Li     1 -0.2306990000000 -0.0319330000000  0.1195300000000 1.0  -0.03
Li     1  0.2306990000000 -0.0319330000000 -0.3804700000000 1.0  -0.03
O      2  0.0325350000000  0.0337580000000  0.2746710000000 1.0   0.05
O      2  0.0354140000000  0.4453550000000  0.2768530000000 1.0   0.05
O      2  0.4954170000000  0.2329460000000  0.2036810000000 1.0   0.02
O      2  0.0352040000000  0.2332420000000  0.0655800000000 1.0   0.03
O      2 -0.0325350000000  0.0337580000000 -0.2253290000000 1.0   0.05
O      2 -0.0354140000000  0.4453550000000 -0.2231470000000 1.0   0.05
O      2 -0.4954170000000  0.2329460000000 -0.2963190000000 1.0   0.02
O      2 -0.0352040000000  0.2332420000000 -0.4344200000000 1.0   0.03
O      2  0.4647960000000 -0.4787720000000 -0.0512340000000 1.0   0.05
O      2  0.4682750000000 -0.0669470000000 -0.0519020000000 1.0   0.05
O      2  0.0052700000000 -0.2652150000000  0.0202550000000 1.0   0.02
O      2  0.4658280000000 -0.2664720000000  0.1583640000000 1.0   0.03
O      2 -0.4647960000000 -0.4787720000000  0.4487660000000 1.0   0.05
O      2 -0.4682750000000 -0.0669470000000  0.4480980000000 1.0   0.05
O      2 -0.0052700000000 -0.2652150000000  0.5202550000000 1.0   0.02
O      2 -0.4658280000000 -0.2664720000000  0.6583640000000 1.0   0.03
P      3  0.1676840000000  0.2399230000000  0.2035140000000 1.0   0.01
P      3 -0.1676840000000  0.2399230000000 -0.2964860000000 1.0   0.01
P      3  0.3329100000000 -0.2702710000000  0.0205050000000 1.0   0.01
P      3 -0.3329100000000 -0.2702710000000  0.5205050000000 1.0   0.01
Fe     4  0.2755130000000  0.2212400000000 -0.1089340000000 1.0   3.86
Fe     4 -0.2755130000000  0.2212400000000  0.3910660000000 1.0   3.86
Fe     4 -0.2244090000000 -0.2545280000000 -0.1677510000000 1.0   3.86
Fe     4  0.2244090000000 -0.2545280000000  0.3322490000000 1.0   3.86
END
