TITL 4LFP_actual-201126-190140-19c714 -0.2499 339.380544 -1.21479992E+004 16.0000 16.2062 28 (Pc) n - 1
REM
REM Run started: Thu, 26 Nov 2020 21:51:11 +0000 in /lustre/scratch/uccabz1/launch_tmp/launcher_2020-11-26-19-01-00-019852
REM CASTEP 20.1 from code version af48c487+ pr-geom-scf-spinfix Tue Jun 2 15:39:59 2020 +0100
REM Functional Perdew Burke Ernzerhof Relativity Koelling-Harmon Dispersion off
REM Cut-off 300.0000 eV Grid scale 1.7500 Gmax 15.5288 1/A FBSC none
REM MP grid 3 2 2 Offset 0.000 0.000 0.000 No. kpts 3 Spacing 0.07
REM Total runtime: 10800.1 s
REM Overall efficiency: 72.0833 %
REM
REM 4LFP_actual.cell (cb690b6ff984803026f07b083c6867a4)
REM
REM compiler GCC version 4.9.2
REM options -cpp -iprefix /lustre/shared/ucl/apps/gcc/4.9.2/bin/../lib/gcc/x86_64-unknown-linux-gnu/4.9.2/ -mtune=corei7 -march=x86-64 -g -Og
REM COMMAND_LINE
REM seed 563526819 366071190 -357826000 908064557 -1805205715 1117716927 1628790900 1427503762 -954809021 -1044566655 1578091014 1202840533
REM
REM P 3|1.8|4|5|5|30:31:32(qc=5)
REM O 2|1.5|12|13|15|20:21(qc=5)
REM Li 1|1.3|8|9|10|10U:20(qc=5)
REM Fe 3|2.2|2.0|1.0|8|9|10|40:41:32(qc=5)
REM Fe d:4.0 
REM
CELL 1.54180    5.13150    8.23749    8.48972   90.00000   90.00000  108.96773
LATT -1
SFAC Li O  P  Fe 
Li     1  0.0181380000000 -0.2102310000000  0.5069520000000 1.0  -0.04
Li     1  0.0181380000000  0.2897690000000 -0.5069520000000 1.0  -0.04
Li     1  0.1587130000000  0.4833720000000  0.1728330000000 1.0  -0.02
Li     1  0.1587130000000 -0.0166280000000 -0.1728330000000 1.0  -0.02
O      2  0.4564880000000  0.0582430000000  0.1492790000000 1.0   0.05
O      2  0.0762790000000 -0.0736510000000  0.3285130000000 1.0   0.05
O      2 -0.0150360000000 -0.1027730000000  0.0291480000000 1.0   0.03
O      2  0.2706010000000 -0.2674060000000  0.1569590000000 1.0   0.03
O      2  0.4564880000000  0.5582430000000 -0.1492790000000 1.0   0.05
O      2  0.0762790000000  0.4263490000000 -0.3285130000000 1.0   0.05
O      2 -0.0150360000000  0.3972270000000 -0.0291480000000 1.0   0.03
O      2  0.2706010000000  0.2325940000000 -0.1569590000000 1.0   0.03
O      2 -0.2838330000000  0.1105020000000 -0.4256360000000 1.0   0.04
O      2 -0.6284190000000 -0.1818470000000 -0.4086350000000 1.0   0.04
O      2 -0.1364520000000 -0.1351290000000 -0.3154990000000 1.0   0.01
O      2 -0.4574310000000 -0.0241150000000 -0.1527250000000 1.0   0.03
O      2 -0.2838330000000  0.6105020000000  0.4256360000000 1.0   0.04
O      2 -0.6284190000000  0.3181530000000  0.4086350000000 1.0   0.04
O      2 -0.1364520000000  0.3648710000000  0.3154990000000 1.0   0.01
O      2 -0.4574310000000  0.4758850000000  0.1527250000000 1.0   0.03
P      3  0.1876290000000 -0.1025580000000  0.1640450000000 1.0   0.01
P      3  0.1876290000000  0.3974420000000 -0.1640450000000 1.0   0.01
P      3 -0.3707540000000 -0.0555820000000 -0.3229720000000 1.0   0.00
P      3 -0.3707540000000  0.4444180000000  0.3229720000000 1.0   0.00
Fe     4  0.4546600000000  0.0930280000000  0.3995280000000 1.0   3.87
Fe     4  0.4546600000000 -0.4069720000000 -0.3995280000000 1.0   3.87
Fe     4 -0.4053830000000 -0.2411290000000  0.0009500000000 1.0   3.88
Fe     4 -0.4053830000000  0.2588710000000 -0.0009500000000 1.0   3.88
END
