TITL 4LFP-201124-143935-de6933 0.0250 139.914948 -6.07316600E+003 8.00000 8.11155 14 (C2) n - 1
REM
REM Run started: Tue, 24 Nov 2020 17:04:31 +0000 in /lustre/scratch/uccabz1/launch_tmp/launcher_2020-11-24-16-52-20-421595
REM CASTEP 20.1 from code version af48c487+ pr-geom-scf-spinfix Tue Jun 2 15:39:59 2020 +0100
REM Functional Perdew Burke Ernzerhof Relativity Koelling-Harmon Dispersion off
REM Cut-off 300.0000 eV Grid scale 1.7500 Gmax 15.5288 1/A FBSC none
REM MP grid 4 4 3 Offset 0.000 0.000 0.000 No. kpts 24 Spacing 0.07
REM Total runtime: 8671.2 s
REM Overall efficiency: 71.9091 %
REM
REM
REM
REM compiler GCC version 4.9.2
REM options -cpp -iprefix /scratch/UCL/applications/gcc/4.9.2/bin/../lib/gcc/x86_64-unknown-linux-gnu/4.9.2/ -mtune=corei7 -march=x86-64 -g -O2
REM COMMAND_LINE
REM seed 76785378 2051979488 1014397829 1732788615 2084445159 -754376487 1184887787 1577267985 -752896045 -1528425686 -1421368716 959064386
REM
REM P 3|1.8|4|5|5|30:31:32(qc=5)
REM O 2|1.5|12|13|15|20:21(qc=5)
REM Li 1|1.3|8|9|10|10U:20(qc=5)
REM Fe 3|2.2|2.0|1.0|8|9|10|40:41:32(qc=5)
REM Fe d:4.0 
REM
CELL 1.54180    4.96736    5.67538    6.07614  112.08181   90.00000  115.95235
LATT -1
SFAC Li O  P  Fe 
Li     1 -0.2742570000000  0.3194550000000 -0.2701670000000 1.0  -0.03
Li     1  0.4062860000000 -0.3194570000000  0.2701670000000 1.0  -0.03
O      2 -0.4332390000000  0.2201770000000  0.3944090000000 1.0   0.03
O      2 -0.0011190000000  0.3056120000000  0.1637210000000 1.0   0.03
O      2 -0.4976120000000  0.2711280000000 -0.0003780000000 1.0   0.04
O      2 -0.1676510000000  0.7046910000000  0.3640410000000 1.0   0.04
O      2  0.3465830000000 -0.2201790000000 -0.3944090000000 1.0   0.03
O      2  0.6932670000000 -0.3056140000000 -0.1637210000000 1.0   0.03
O      2  0.2312600000000 -0.2711300000000  0.0003780000000 1.0   0.04
O      2  0.1276580000000 -0.7046930000000 -0.3640410000000 1.0   0.04
P      3 -0.2709180000000  0.3708980000000  0.2308990000000 1.0   0.01
P      3  0.3581840000000 -0.3709000000000 -0.2308990000000 1.0   0.01
Fe     4  0.0755280000000 -0.0178030000000 -0.2422940000000 1.0   3.88
Fe     4  0.0933300000000  0.0178010000000  0.2422940000000 1.0   3.88
END
