TITL 4LFP_actual-201201-145824-c27db2 0.0305 300.339525 -1.21478668E+004 16.0000 16.2338 28 (Pc) n - 1
REM
REM Run started: Tue, 01 Dec 2020 22:51:10 +0000 in /lustre/scratch/uccabz1/launch_tmp/launcher_2020-12-01-16-51-07-153051
REM CASTEP 20.1 from code version af48c487+ pr-geom-scf-spinfix Tue Jun 2 15:39:59 2020 +0100
REM Functional Perdew Burke Ernzerhof Relativity Koelling-Harmon Dispersion off
REM Cut-off 300.0000 eV Grid scale 1.7500 Gmax 15.5288 1/A FBSC none
REM MP grid 4 3 2 Offset 0.000 0.000 0.000 No. kpts 6 Spacing 0.07
REM Total runtime: 26781.9 s
REM Overall efficiency: 91.75 %
REM
REM
REM
REM compiler GCC version 4.9.2
REM options -cpp -iprefix /lustre/shared/ucl/apps/gcc/4.9.2/bin/../lib/gcc/x86_64-unknown-linux-gnu/4.9.2/ -mtune=corei7 -march=x86-64 -g -Og
REM COMMAND_LINE
REM seed -1216570772 1991335425 -1664304021 -1623432751 -1276890035 -289227985 868939348 -150062165 1110633482 -1596609240 1404693339 -374934399
REM
REM P 3|1.8|4|5|5|30:31:32(qc=5)
REM O 2|1.5|12|13|15|20:21(qc=5)
REM Li 1|1.3|8|9|10|10U:20(qc=5)
REM Fe 3|2.2|2.0|1.0|8|9|10|40:41:32(qc=5)
REM Fe d:4.0 
REM
CELL 1.54180    5.04244    5.57221   12.45664   90.00000   90.00000  120.89496
LATT -1
SFAC Li O  P  Fe 
Li     1 -0.4298480000000 -0.3569040000000 -0.4308950000000 1.0  -0.03
Li     1  0.0701520000000 -0.3569040000000  0.4308950000000 1.0  -0.03
Li     1 -0.5046420000000 -0.4753800000000 -0.1963560000000 1.0  -0.03
Li     1 -0.0046420000000 -0.4753800000000  0.1963560000000 1.0  -0.03
O      2  0.5716310000000  0.3152460000000  0.2541930000000 1.0   0.03
O      2  0.6564300000000  0.5872610000000  0.4243640000000 1.0   0.02
O      2  0.1110320000000  0.3119050000000  0.3554570000000 1.0   0.03
O      2  0.3704960000000  0.0479060000000  0.4258460000000 1.0   0.04
O      2  0.0716310000000  0.3152460000000 -0.2541930000000 1.0   0.03
O      2  0.1564300000000  0.5872610000000 -0.4243640000000 1.0   0.02
O      2 -0.3889680000000  0.3119050000000 -0.3554570000000 1.0   0.03
O      2 -0.1295040000000  0.0479060000000 -0.4258460000000 1.0   0.04
O      2 -0.0619570000000 -0.2393710000000 -0.2275750000000 1.0   0.05
O      2  0.4629510000000 -0.1429890000000 -0.1654490000000 1.0   0.04
O      2  0.2044630000000  0.0839530000000 -0.0700020000000 1.0   0.05
O      2 -0.0266500000000 -0.4413250000000 -0.0514230000000 1.0   0.05
O      2 -0.5619570000000 -0.2393710000000  0.2275750000000 1.0   0.05
O      2 -0.0370490000000 -0.1429890000000  0.1654490000000 1.0   0.04
O      2 -0.2955370000000  0.0839530000000  0.0700020000000 1.0   0.05
O      2 -0.5266500000000 -0.4413250000000  0.0514230000000 1.0   0.05
P      3  0.4204070000000  0.3113240000000  0.3623060000000 1.0   0.01
P      3 -0.0795930000000  0.3113240000000 -0.3623060000000 1.0   0.01
P      3  0.1446070000000 -0.1903260000000 -0.1264750000000 1.0   0.01
P      3 -0.3553930000000 -0.1903260000000  0.1264750000000 1.0   0.01
Fe     4  0.3480670000000  0.1731910000000  0.0968160000000 1.0   3.86
Fe     4 -0.1519330000000  0.1731910000000 -0.0968160000000 1.0   3.86
Fe     4  0.1976970000000 -0.0394780000000 -0.3554800000000 1.0   3.88
Fe     4 -0.3023030000000 -0.0394780000000  0.3554800000000 1.0   3.88
END
