TITL 4LFP-201124-065618-b8890f -0.0131 157.013780 -6.07158293E+003 8.00000 8.14122 14 (P2) n - 1
REM
REM Run started: Tue, 24 Nov 2020 07:06:04 +0000 in /lustre/scratch/uccabz1/launch_tmp/launcher_2020-11-24-06-56-14-433471
REM CASTEP 20.1 from code version af48c487+ pr-geom-scf-spinfix Tue Jun 2 15:39:59 2020 +0100
REM Functional Perdew Burke Ernzerhof Relativity Koelling-Harmon Dispersion off
REM Cut-off 300.0000 eV Grid scale 1.7500 Gmax 15.5288 1/A FBSC none
REM MP grid 4 3 3 Offset 0.000 0.000 0.000 No. kpts 10 Spacing 0.07
REM Total runtime: 878.1 s
REM Overall efficiency: 75 %
REM
REM 4LFP.cell (a815d5d25b9f25a0a111bfe3624e67be)
REM
REM compiler GCC version 4.9.2
REM options -cpp -iprefix /lustre/shared/ucl/apps/gcc/4.9.2/bin/../lib/gcc/x86_64-unknown-linux-gnu/4.9.2/ -mtune=corei7 -march=x86-64 -g -Og
REM COMMAND_LINE
REM seed 1603833871 155201551 -1601593529 -803273125 1050992372 1928435895 1936782399 -983111142 -1784214436 -1972018778 690772674 -1901654665
REM
REM P 3|1.8|4|5|5|30:31:32(qc=5)
REM O 2|1.5|12|13|15|20:21(qc=5)
REM Li 1|1.3|8|9|10|10U:20(qc=5)
REM Fe 3|2.2|2.0|1.0|8|9|10|40:41:32(qc=5)
REM Fe d:4.0 
REM
CELL 1.54180    4.70175    5.65982    6.12575  105.59211   90.00000   90.00000
LATT -1
SFAC Li O  P  Fe 
Li     1  0.4796680000000 -0.4175240000000 -0.1740350000000 1.0  -0.04
Li     1  0.4796680000000  0.4175240000000  0.1740350000000 1.0  -0.04
O      2  0.0915350000000 -0.5442760000000  0.2278670000000 1.0   0.01
O      2  0.1335780000000 -0.0919930000000  0.2683980000000 1.0   0.06
O      2 -0.3074630000000 -0.2660110000000  0.0950570000000 1.0   0.04
O      2 -0.2678820000000 -0.2641130000000  0.4933800000000 1.0   0.05
O      2  0.0915350000000  0.5442760000000 -0.2278670000000 1.0   0.01
O      2  0.1335780000000  0.0919930000000 -0.2683980000000 1.0   0.06
O      2 -0.3074630000000  0.2660110000000 -0.0950570000000 1.0   0.04
O      2 -0.2678820000000  0.2641130000000 -0.4933800000000 1.0   0.05
P      3 -0.0811520000000 -0.3062150000000  0.2760610000000 1.0   0.00
P      3 -0.0811520000000  0.3062150000000 -0.2760610000000 1.0   0.00
Fe     4  0.4429360000000  0.0000000000000  0.5000000000000 1.0   3.85
Fe     4 -0.0509600000000  0.0000000000000  0.0000000000000 1.0   3.88
END
