TITL 4LFP-201124-092039-438c77 0.0149 177.999202 -6.07362062E+003 8.00000 8.11680 14 (Pm) n - 1
REM
REM Run started: Tue, 24 Nov 2020 09:42:56 +0000 in /scratch/scratch/uccabz1/launch_tmp/launcher_2020-11-24-09-20-35-630755
REM CASTEP 19.11| from code version Version unavailable
REM Functional Perdew Burke Ernzerhof Relativity Koelling-Harmon Dispersion off
REM Cut-off 300.0000 eV Grid scale 1.7500 Gmax 15.5288 1/A FBSC none
REM MP grid 4 4 2 Offset 0.000 0.000 0.000 No. kpts 8 Spacing 0.07
REM Total runtime: 1403.67 s
REM Overall efficiency: 75.5714 %
REM
REM 4LFP.cell (a815d5d25b9f25a0a111bfe3624e67be)
REM
REM compiler GCC version 4.9.2
REM options -cpp -iprefix /scratch/UCL/applications/gcc/4.9.2/bin/../lib/gcc/x86_64-unknown-linux-gnu/4.9.2/ -mtune=corei7 -march=x86-64 -g -O2
REM COMMAND_LINE
REM seed 2116424888 -1630407905 -1215352585 594393836 -455135280 1060933821 1498695214 1938283003 -1486958579 226358721 1151928178 1051945879
REM
REM P 3|1.8|4|5|5|30:31:32(qc=5)
REM O 2|1.5|12|13|15|20:21(qc=5)
REM Li 1|1.3|8|9|10|10U:20(qc=5)
REM Fe 3|2.2|2.0|1.0|8|9|10|40:41:32(qc=5)
REM Fe d:4.0 
REM
CELL 1.54180    4.35854    4.16964    9.79584   90.00000   90.00000   90.97480
LATT -1
SFAC Li O  P  Fe 
Li     1  0.5603010000000 -0.2212040000000 -0.5000000000000 1.0  -0.02
Li     1  0.5265960000000  0.3093710000000  0.0000000000000 1.0  -0.02
O      2 -0.6357130000000  0.0785320000000  0.3538610000000 1.0   0.04
O      2 -0.6548760000000  0.4957730000000  0.1615410000000 1.0   0.04
O      2 -0.2442650000000  0.5346860000000  0.3514380000000 1.0   0.04
O      2 -0.2389130000000  0.1175220000000  0.1582990000000 1.0   0.04
O      2 -0.6357130000000  0.0785320000000 -0.3538610000000 1.0   0.04
O      2 -0.6548760000000  0.4957730000000 -0.1615410000000 1.0   0.04
O      2 -0.2442650000000  0.5346860000000 -0.3514380000000 1.0   0.04
O      2 -0.2389130000000  0.1175220000000 -0.1582990000000 1.0   0.04
P      3 -0.4424300000000  0.3062820000000  0.2615780000000 1.0   0.01
P      3 -0.4424300000000  0.3062820000000 -0.2615780000000 1.0   0.01
Fe     4  0.0593350000000 -0.1873390000000 -0.2387170000000 1.0   3.87
Fe     4  0.0593350000000 -0.1873390000000  0.2387170000000 1.0   3.87
END
