TITL 4LFP_actual-201201-151222-510ff8 -0.0296 311.244448 -1.21481322E+004 16.0000 16.3914 28 (Cc) n - 1
REM
REM Run started: Tue, 01 Dec 2020 18:24:02 +0000 in /lustre/scratch/uccabz1/launch_tmp/launcher_2020-12-01-15-12-19-693863
REM CASTEP 20.1 from code version af48c487+ pr-geom-scf-spinfix Tue Jun 2 15:39:59 2020 +0100
REM Functional Perdew Burke Ernzerhof Relativity Koelling-Harmon Dispersion off
REM Cut-off 300.0000 eV Grid scale 1.7500 Gmax 15.5288 1/A FBSC none
REM MP grid 3 3 3 Offset 0.000 0.000 0.000 No. kpts 10 Spacing 0.07
REM Total runtime: 12066.5 s
REM Overall efficiency: 80.1818 %
REM
REM 4LFP_actual.cell (cb690b6ff984803026f07b083c6867a4)
REM
REM compiler GCC version 4.9.2
REM options -cpp -iprefix /lustre/shared/ucl/apps/gcc/4.9.2/bin/../lib/gcc/x86_64-unknown-linux-gnu/4.9.2/ -mtune=corei7 -march=x86-64 -g -Og
REM COMMAND_LINE
REM seed 1690778743 305424514 1795954240 1668262793 -868237844 386715220 1953075909 -289845179 643708318 1952699956 -1642987277 1323952383
REM
REM P 3|1.8|4|5|5|30:31:32(qc=5)
REM O 2|1.5|12|13|15|20:21(qc=5)
REM Li 1|1.3|8|9|10|10U:20(qc=5)
REM Fe 3|2.2|2.0|1.0|8|9|10|40:41:32(qc=5)
REM Fe d:4.0 
REM
CELL 1.54180    6.42521    7.82724    8.04239  119.88544  113.54437   90.00000
LATT -1
SFAC Li O  P  Fe 
Li     1  0.1173430000000  0.4437350000000  0.2977920000000 1.0  -0.04
Li     1  0.1804490000000 -0.0562650000000  0.2977920000000 1.0  -0.04
Li     1 -0.0720350000000 -0.3063180000000 -0.2025740000000 1.0  -0.04
Li     1 -0.1305390000000  0.1936820000000 -0.2025740000000 1.0  -0.04
O      2 -0.0428550000000 -0.2888880000000  0.0443380000000 1.0   0.02
O      2 -0.1113130000000 -0.4236820000000  0.2531980000000 1.0   0.03
O      2 -0.4394130000000 -0.3239400000000  0.0455930000000 1.0   0.06
O      2 -0.3226730000000 -0.6361360000000 -0.1658880000000 1.0   0.03
O      2  0.0871930000000  0.2111120000000  0.0443380000000 1.0   0.02
O      2  0.3645110000000  0.0763180000000  0.2531980000000 1.0   0.03
O      2  0.4850060000000  0.1760600000000  0.0455930000000 1.0   0.06
O      2  0.1567850000000 -0.1361360000000 -0.1658880000000 1.0   0.03
O      2 -0.2785690000000 -0.0788700000000 -0.4463910000000 1.0   0.04
O      2 -0.3762480000000 -0.2225640000000 -0.2569260000000 1.0   0.04
O      2 -0.6740220000000 -0.0849000000000 -0.4597930000000 1.0   0.04
O      2 -0.5799440000000 -0.4217810000000 -0.6547520000000 1.0   0.04
O      2 -0.1678220000000  0.4211300000000 -0.4463910000000 1.0   0.04
O      2  0.1193220000000  0.2774360000000 -0.2569260000000 1.0   0.04
O      2  0.2142290000000  0.4151000000000 -0.4597930000000 1.0   0.04
O      2 -0.0748080000000  0.0782190000000 -0.6547520000000 1.0   0.04
P      3 -0.2233890000000 -0.4194010000000  0.0445610000000 1.0   0.00
P      3  0.2679500000000  0.0805990000000  0.0445610000000 1.0   0.00
P      3 -0.4770740000000 -0.1991300000000 -0.4540050000000 1.0   0.02
P      3  0.0230690000000  0.3008700000000 -0.4540050000000 1.0   0.02
Fe     4  0.3834570000000  0.4434020000000  0.0441730000000 1.0   3.88
Fe     4 -0.3392830000000 -0.0565980000000  0.0441730000000 1.0   3.88
Fe     4 -0.4770670000000  0.3713600000000  0.5459600000000 1.0   3.87
Fe     4  0.0230270000000 -0.1286400000000  0.5459600000000 1.0   3.87
END
