TITL 4LFP-201124-103903-2ab811 -0.0357 147.645025 -6.07096869E+003 8.00000 8.11513 14 (Cm) n - 1
REM
REM Run started: Tue, 24 Nov 2020 13:05:14 +0000 in /lustre/scratch/uccabz1/launch_tmp/launcher_2020-11-24-10-38-59-703436
REM CASTEP 20.1 from code version af48c487+ pr-geom-scf-spinfix Tue Jun 2 15:39:59 2020 +0100
REM Functional Perdew Burke Ernzerhof Relativity Koelling-Harmon Dispersion off
REM Cut-off 300.0000 eV Grid scale 1.7500 Gmax 15.5288 1/A FBSC none
REM MP grid 3 3 4 Offset 0.000 0.000 0.000 No. kpts 12 Spacing 0.07
REM Total runtime: 8947.68 s
REM Overall efficiency: 90.0833 %
REM
REM 4LFP.cell (a815d5d25b9f25a0a111bfe3624e67be)
REM
REM compiler GCC version 4.9.2
REM options -cpp -iprefix /lustre/shared/ucl/apps/gcc/4.9.2/bin/../lib/gcc/x86_64-unknown-linux-gnu/4.9.2/ -mtune=corei7 -march=x86-64 -g -Og
REM COMMAND_LINE
REM seed 1490763762 1481802012 -1754345338 1794606748 1300534677 785619499 1025322605 -298453057 310388562 1665582267 -52548852 -2045172056
REM
REM P 3|1.8|4|5|5|30:31:32(qc=5)
REM O 2|1.5|12|13|15|20:21(qc=5)
REM Li 1|1.3|8|9|10|10U:20(qc=5)
REM Fe 3|2.2|2.0|1.0|8|9|10|40:41:32(qc=5)
REM Fe d:4.0 
REM
CELL 1.54180    6.11337    6.11337    4.79322  113.47062  113.47062   70.86601
LATT -1
SFAC Li O  P  Fe 
Li     1  0.2765410000000 -0.3239650000000  0.2626870000000 1.0  -0.03
Li     1 -0.3239650000000  0.2765410000000  0.2626870000000 1.0  -0.03
O      2 -0.3923880000000  0.0240190000000 -0.6729350000000 1.0   0.04
O      2 -0.6005100000000 -0.0941430000000 -0.3598080000000 1.0   0.03
O      2 -0.2558920000000  0.0997390000000 -0.1075250000000 1.0   0.07
O      2  0.0240190000000 -0.3923880000000 -0.6729350000000 1.0   0.04
O      2 -0.0941430000000 -0.6005100000000 -0.3598080000000 1.0   0.03
O      2  0.0997390000000 -0.2558920000000 -0.1075250000000 1.0   0.07
O      2  0.2074310000000  0.2074310000000  0.3418670000000 1.0   0.04
O      2  0.3954040000000  0.3954040000000 -0.1677400000000 1.0   0.01
P      3 -0.5096610000000  0.1065930000000 -0.3989610000000 1.0   0.01
P      3  0.1065930000000 -0.5096610000000 -0.3989610000000 1.0   0.01
Fe     4 -0.2287470000000 -0.2287470000000 -0.0097210000000 1.0   3.84
Fe     4  0.0751430000000  0.0751430000000 -0.1495140000000 1.0   3.90
END
