TITL 4LFP-201124-090330-3c00e0 0.0109 161.266355 -6.06652986E+003 7.98669 8.20724 14 (Pmc21) n - 1
REM
REM Run started: Tue, 24 Nov 2020 09:46:53 +0000 in /scratch/scratch/uccabz1/launch_tmp/launcher_2020-11-24-09-03-27-034126
REM CASTEP 19.11| from code version Version unavailable
REM Functional Perdew Burke Ernzerhof Relativity Koelling-Harmon Dispersion off
REM Cut-off 300.0000 eV Grid scale 1.7500 Gmax 15.5288 1/A FBSC none
REM MP grid 3 3 3 Offset 0.000 0.000 0.000 No. kpts 8 Spacing 0.07
REM Total runtime: 2676.88 s
REM Overall efficiency: 91.75 %
REM
REM 4LFP.cell (a815d5d25b9f25a0a111bfe3624e67be)
REM
REM compiler GCC version 4.9.2
REM options -cpp -iprefix /scratch/UCL/applications/gcc/4.9.2/bin/../lib/gcc/x86_64-unknown-linux-gnu/4.9.2/ -mtune=corei7 -march=x86-64 -g -O2
REM COMMAND_LINE
REM seed 1112619702 591959670 -2073152620 1109813591 1612930040 779508861 1533642025 -1778167606 -1682158432 1555656573 -1043285168 1620615598
REM
REM P 3|1.8|4|5|5|30:31:32(qc=5)
REM O 2|1.5|12|13|15|20:21(qc=5)
REM Li 1|1.3|8|9|10|10U:20(qc=5)
REM Fe 3|2.2|2.0|1.0|8|9|10|40:41:32(qc=5)
REM Fe d:4.0 
REM
CELL 1.54180    5.21142    5.61164    5.51440   90.00000   90.00000   90.00000
LATT -1
SFAC Li O  P  Fe 
Li     1  0.5000000000000 -0.0240510000000 -0.1501780000000 1.0  -0.01
Li     1  0.5000000000000  0.4759490000000  0.1501780000000 1.0  -0.01
O      2  0.2216920000000 -0.3967290000000 -0.0523450000000 1.0   0.07
O      2  0.2219760000000 -0.4346110000000  0.3634380000000 1.0   0.06
O      2 -0.2216920000000  0.1032710000000  0.0523450000000 1.0   0.07
O      2 -0.2219760000000  0.0653890000000 -0.3634380000000 1.0   0.06
O      2  0.2216920000000  0.1032710000000  0.0523450000000 1.0   0.07
O      2  0.2219760000000  0.0653890000000 -0.3634380000000 1.0   0.06
O      2 -0.2216920000000 -0.3967290000000 -0.0523450000000 1.0   0.07
O      2 -0.2219760000000 -0.4346110000000  0.3634380000000 1.0   0.06
P      3  0.0000000000000  0.0984820000000 -0.1588010000000 1.0  -0.02
P      3  0.0000000000000 -0.4015180000000  0.1588010000000 1.0  -0.02
Fe     4  0.0000000000000  0.0312810000000  0.3373430000000 1.0   3.77
Fe     4  0.0000000000000 -0.4687190000000 -0.3373430000000 1.0   3.77
END
