TITL 4LFP_actual-201126-161217-90e19b -0.0081 298.837836 -1.21476202E+004 16.0000 16.2763 28 (P-1) n - 1
REM
REM Run started: Thu, 26 Nov 2020 19:57:48 +0000 in /lustre/scratch/uccabz1/launch_tmp/launcher_2020-11-26-16-12-14-531700
REM CASTEP 20.1 from code version af48c487+ pr-geom-scf-spinfix Tue Jun 2 15:39:59 2020 +0100
REM Functional Perdew Burke Ernzerhof Relativity Koelling-Harmon Dispersion off
REM Cut-off 300.0000 eV Grid scale 1.7500 Gmax 15.5288 1/A FBSC none
REM MP grid 3 4 2 Offset 0.000 0.000 0.000 No. kpts 12 Spacing 0.07
REM Total runtime: 14218.5 s
REM Overall efficiency: 77.7273 %
REM
REM 4LFP_actual.cell (cb690b6ff984803026f07b083c6867a4)
REM
REM compiler GCC version 4.9.2
REM options -cpp -iprefix /lustre/shared/ucl/apps/gcc/4.9.2/bin/../lib/gcc/x86_64-unknown-linux-gnu/4.9.2/ -mtune=corei7 -march=x86-64 -g -Og
REM COMMAND_LINE
REM seed -546836148 2109527791 85458853 -891840241 -2065712438 -864022314 -1099975106 1562872983 191549248 1135601773 -793970385 1717758314
REM
REM P 3|1.8|4|5|5|30:31:32(qc=5)
REM O 2|1.5|12|13|15|20:21(qc=5)
REM Li 1|1.3|8|9|10|10U:20(qc=5)
REM Fe 3|2.2|2.0|1.0|8|9|10|40:41:32(qc=5)
REM Fe d:4.0 
REM
CELL 1.54180    6.77221    5.57144    9.82732  104.11747  105.14872  114.35760
LATT -1
SFAC Li O  P  Fe 
Li     1 -0.2449560000000 -0.4928220000000  0.0832200000000 1.0  -0.02
Li     1  0.2449560000000  0.4928220000000 -0.0832200000000 1.0  -0.02
Li     1  0.3238650000000 -0.2371550000000 -0.2479840000000 1.0  -0.05
Li     1 -0.3238650000000  0.2371550000000  0.2479840000000 1.0  -0.05
O      2 -0.2344060000000  0.3892600000000 -0.3660870000000 1.0   0.06
O      2  0.1362810000000  0.3403320000000 -0.3185900000000 1.0   0.03
O      2 -0.2791160000000 -0.1077940000000 -0.4438010000000 1.0   0.06
O      2 -0.1587310000000  0.1777110000000 -0.5941770000000 1.0   0.05
O      2  0.2344060000000 -0.3892600000000  0.3660870000000 1.0   0.06
O      2 -0.1362810000000 -0.3403320000000  0.3185900000000 1.0   0.03
O      2  0.2791160000000  0.1077940000000  0.4438010000000 1.0   0.06
O      2  0.1587310000000 -0.1777110000000  0.5941770000000 1.0   0.05
O      2 -0.4066710000000 -0.2684360000000 -0.1460930000000 1.0   0.04
O      2 -0.1796600000000  0.1932330000000  0.1017670000000 1.0   0.03
O      2 -0.0258030000000  0.1576730000000 -0.1093820000000 1.0   0.04
O      2 -0.4009840000000  0.1947880000000 -0.1382360000000 1.0   0.03
O      2  0.4066710000000  0.2684360000000  0.1460930000000 1.0   0.04
O      2  0.1796600000000 -0.1932330000000 -0.1017670000000 1.0   0.03
O      2  0.0258030000000 -0.1576730000000  0.1093820000000 1.0   0.04
O      2  0.4009840000000 -0.1947880000000  0.1382360000000 1.0   0.03
P      3 -0.1286290000000  0.2081160000000 -0.4270770000000 1.0   0.02
P      3  0.1286290000000 -0.2081160000000  0.4270770000000 1.0   0.02
P      3 -0.2482050000000  0.0683570000000 -0.0732420000000 1.0   0.01
P      3  0.2482050000000 -0.0683570000000  0.0732420000000 1.0   0.01
Fe     4  0.0596960000000  0.1745600000000  0.2791910000000 1.0   3.84
Fe     4 -0.0596960000000 -0.1745600000000 -0.2791910000000 1.0   3.84
Fe     4 -0.4600590000000 -0.3162630000000  0.3107890000000 1.0   3.87
Fe     4  0.4600590000000  0.3162630000000 -0.3107890000000 1.0   3.87
END
