TITL 4LFP_actual-201126-173854-9811a2 0.0406 312.873487 -1.21471616E+004 16.0000 16.2609 28 (P-1) n - 1
REM
REM Run started: Thu, 26 Nov 2020 19:47:24 +0000 in /lustre/scratch/uccabz1/launch_tmp/launcher_2020-11-26-17-38-49-931844
REM CASTEP 20.1 from code version af48c487+ pr-geom-scf-spinfix Tue Jun 2 15:39:59 2020 +0100
REM Functional Perdew Burke Ernzerhof Relativity Koelling-Harmon Dispersion off
REM Cut-off 300.0000 eV Grid scale 1.7500 Gmax 15.5288 1/A FBSC none
REM MP grid 3 3 2 Offset 0.000 0.000 0.000 No. kpts 9 Spacing 0.07
REM Total runtime: 8333.31 s
REM Overall efficiency: 78 %
REM
REM 4LFP_actual.cell (cb690b6ff984803026f07b083c6867a4)
REM
REM compiler GCC version 4.9.2
REM options -cpp -iprefix /lustre/shared/ucl/apps/gcc/4.9.2/bin/../lib/gcc/x86_64-unknown-linux-gnu/4.9.2/ -mtune=corei7 -march=x86-64 -g -Og
REM COMMAND_LINE
REM seed -1195040221 -1427054106 1128610282 2112126796 -987510628 -936656397 -892161896 -828983565 1757708195 -1808428263 -1821516399 1710059124
REM
REM P 3|1.8|4|5|5|30:31:32(qc=5)
REM O 2|1.5|12|13|15|20:21(qc=5)
REM Li 1|1.3|8|9|10|10U:20(qc=5)
REM Fe 3|2.2|2.0|1.0|8|9|10|40:41:32(qc=5)
REM Fe d:4.0 
REM
CELL 1.54180    5.14825    6.04946   10.95206   99.07972  103.57405  104.22983
LATT -1
SFAC Li O  P  Fe 
Li     1  0.3436850000000  0.1399220000000  0.4407380000000 1.0  -0.02
Li     1 -0.3436850000000 -0.1399220000000 -0.4407380000000 1.0  -0.02
Li     1 -0.5366600000000  0.2134340000000 -0.0238690000000 1.0  -0.04
Li     1  0.5366600000000 -0.2134340000000  0.0238690000000 1.0  -0.04
O      2  0.3344750000000 -0.0935910000000 -0.4071340000000 1.0   0.03
O      2  0.3203380000000  0.3267350000000 -0.4080420000000 1.0   0.03
O      2 -0.0208270000000  0.0527600000000 -0.3234790000000 1.0   0.03
O      2  0.4842780000000  0.2147040000000 -0.1948420000000 1.0   0.04
O      2 -0.3344750000000  0.0935910000000  0.4071340000000 1.0   0.03
O      2 -0.3203380000000 -0.3267350000000  0.4080420000000 1.0   0.03
O      2  0.0208270000000 -0.0527600000000  0.3234790000000 1.0   0.03
O      2 -0.4842780000000 -0.2147040000000  0.1948420000000 1.0   0.04
O      2  0.0295890000000  0.4774040000000  0.2223150000000 1.0   0.05
O      2  0.3148580000000  0.1945220000000  0.1955590000000 1.0   0.06
O      2 -0.2035910000000  0.0994120000000  0.0607620000000 1.0   0.02
O      2  0.1908280000000  0.3785650000000  0.0109230000000 1.0   0.03
O      2 -0.0295890000000 -0.4774040000000 -0.2223150000000 1.0   0.05
O      2 -0.3148580000000 -0.1945220000000 -0.1955590000000 1.0   0.06
O      2  0.2035910000000 -0.0994120000000 -0.0607620000000 1.0   0.02
O      2 -0.1908280000000 -0.3785650000000 -0.0109230000000 1.0   0.03
P      3  0.2801470000000  0.1263420000000 -0.3330070000000 1.0   0.01
P      3 -0.2801470000000 -0.1263420000000  0.3330070000000 1.0   0.01
P      3  0.0806910000000  0.2881870000000  0.1210330000000 1.0   0.01
P      3 -0.0806910000000 -0.2881870000000 -0.1210330000000 1.0   0.01
Fe     4 -0.2892310000000  0.3670440000000  0.3018450000000 1.0   3.88
Fe     4  0.2892310000000 -0.3670440000000 -0.3018450000000 1.0   3.88
Fe     4  0.1162860000000 -0.1940140000000  0.1627750000000 1.0   3.87
Fe     4 -0.1162860000000  0.1940140000000 -0.1627750000000 1.0   3.87
END
