TITL 4LFP_actual-201126-151214-c48dc6 -0.0038 305.985575 -1.21344205E+004 8.00000 9.79957 28 (Cm) n - 1
REM
REM Run started: Thu, 26 Nov 2020 17:52:17 +0000 in /lustre/scratch/uccabz1/launch_tmp/launcher_2020-11-26-15-12-08-975192
REM CASTEP 20.1 from code version af48c487+ pr-geom-scf-spinfix Tue Jun 2 15:39:59 2020 +0100
REM Functional Perdew Burke Ernzerhof Relativity Koelling-Harmon Dispersion off
REM Cut-off 300.0000 eV Grid scale 1.7500 Gmax 15.5288 1/A FBSC none
REM MP grid 3 3 2 Offset 0.000 0.000 0.000 No. kpts 6 Spacing 0.07
REM Total runtime: 9636.55 s
REM Overall efficiency: 71.4444 %
REM
REM 4LFP_actual.cell (cb690b6ff984803026f07b083c6867a4)
REM
REM compiler GCC version 4.9.2
REM options -cpp -iprefix /lustre/shared/ucl/apps/gcc/4.9.2/bin/../lib/gcc/x86_64-unknown-linux-gnu/4.9.2/ -mtune=corei7 -march=x86-64 -g -Og
REM COMMAND_LINE
REM seed 1994535630 158208318 379901764 1559787994 780028330 633740704 -1803705338 -917667878 -1905392018 1451829559 942962270 197626297
REM
REM P 3|1.8|4|5|5|30:31:32(qc=5)
REM O 2|1.5|12|13|15|20:21(qc=5)
REM Li 1|1.3|8|9|10|10U:20(qc=5)
REM Fe 3|2.2|2.0|1.0|8|9|10|40:41:32(qc=5)
REM Fe d:4.0 
REM
CELL 1.54180    6.35741    6.35741    8.05903   87.79691   87.79691  109.69199
LATT -1
SFAC Li O  P  Fe 
Li     1 -0.4529760000000  0.0169080000000  0.0681360000000 1.0  -0.01
Li     1  0.0169080000000 -0.4529760000000  0.0681360000000 1.0  -0.01
Li     1  0.0470930000000 -0.4838150000000 -0.4234820000000 1.0  -0.00
Li     1 -0.4838150000000  0.0470930000000 -0.4234820000000 1.0  -0.00
O      2 -0.3800790000000  0.3982680000000  0.5226010000000 1.0  -0.03
O      2 -0.5408050000000  0.2390920000000  0.1848050000000 1.0  -0.03
O      2 -0.0785390000000  0.7007480000000  0.2595290000000 1.0  -0.03
O      2 -0.0117360000000  0.2080780000000  0.4898830000000 1.0  -0.02
O      2  0.3982680000000 -0.3800790000000  0.5226010000000 1.0  -0.03
O      2  0.2390920000000 -0.5408050000000  0.1848050000000 1.0  -0.03
O      2  0.7007480000000 -0.0785390000000  0.2595290000000 1.0  -0.03
O      2  0.2080780000000 -0.0117360000000  0.4898830000000 1.0  -0.02
O      2  0.1232530000000 -0.0985090000000  0.0251480000000 1.0  -0.03
O      2  0.4232560000000  0.2026220000000 -0.2388140000000 1.0  -0.03
O      2  0.4865700000000 -0.2937850000000 -0.0139100000000 1.0  -0.02
O      2 -0.0411010000000 -0.2610370000000 -0.3154050000000 1.0  -0.03
O      2 -0.0985090000000  0.1232530000000  0.0251480000000 1.0  -0.03
O      2  0.2026220000000  0.4232560000000 -0.2388140000000 1.0  -0.03
O      2 -0.2937850000000  0.4865700000000 -0.0139100000000 1.0  -0.02
O      2 -0.2610370000000 -0.0411010000000 -0.3154050000000 1.0  -0.03
P      3  0.4390330000000  0.4390330000000 -0.3422420000000 1.0  -0.05
P      3 -0.0096030000000 -0.0096030000000 -0.3938870000000 1.0  -0.05
P      3  0.4893480000000  0.4893480000000  0.1038030000000 1.0  -0.05
P      3 -0.0604470000000 -0.0604470000000  0.1595530000000 1.0  -0.05
Fe     4  0.1510600000000  0.1510600000000 -0.1227870000000 1.0   2.19
Fe     4 -0.3543330000000 -0.3543330000000  0.3703100000000 1.0   2.19
Fe     4 -0.2944620000000 -0.2944620000000 -0.1758820000000 1.0   2.16
Fe     4  0.2086930000000  0.2086930000000  0.3300160000000 1.0   2.17
END
