TITL 4LFP_actual-201126-065357-42bd15 0.0248 300.544301 -1.21434047E+004 16.0000 16.2077 28 (P1) n - 1
REM
REM Run started: Fri, 27 Nov 2020 04:03:55 +0000 in /scratch/scratch/mmm0366/launch_tmp/launcher_2020-11-26-06-53-55-387934
REM CASTEP 19.11| from code version Version unavailable
REM Functional Perdew Burke Ernzerhof Relativity Koelling-Harmon Dispersion off
REM Cut-off 300.0000 eV Grid scale 1.7500 Gmax 15.5288 1/A FBSC none
REM MP grid 3 3 2 Offset 0.000 0.000 0.000 No. kpts 9 Spacing 0.07
REM Total runtime: 64541.5 s
REM Overall efficiency: 79.25 %
REM
REM 4LFP_actual.cell (cb690b6ff984803026f07b083c6867a4)
REM
REM compiler GCC version 4.9.2
REM options -cpp -iprefix /scratch/UCL/applications/gcc/4.9.2/bin/../lib/gcc/x86_64-unknown-linux-gnu/4.9.2/ -mtune=corei7 -march=x86-64 -g -O2
REM COMMAND_LINE
REM seed -1163640258 1933626390 393964041 1694619431 -684608412 1235748811 -1882130975 -257216553 -854407146 1907173963 2143228715 1010190176
REM
REM P 3|1.8|4|5|5|30:31:32(qc=5)
REM O 2|1.5|12|13|15|20:21(qc=5)
REM Li 1|1.3|8|9|10|10U:20(qc=5)
REM Fe 3|2.2|2.0|1.0|8|9|10|40:41:32(qc=5)
REM Fe d:4.0 
REM
CELL 1.54180    6.40390    5.52929    8.80809  101.24407   80.25484   96.27574
LATT -1
SFAC Li O  P  Fe 
Li     1 -0.2123370000000 -0.3127640000000  0.3769050000000 1.0  -0.08
Li     1  0.2123370000000  0.3127640000000 -0.3769050000000 1.0  -0.08
Li     1 -0.3430370000000  0.3493140000000  0.0424460000000 1.0  -0.02
Li     1  0.3430370000000 -0.3493140000000 -0.0424460000000 1.0  -0.02
O      2 -0.3027480000000  0.2711620000000 -0.1675180000000 1.0   0.03
O      2 -0.3363990000000 -0.0521340000000 -0.4176260000000 1.0   0.06
O      2 -0.1102870000000  0.3507470000000 -0.4185210000000 1.0   0.07
O      2  0.0090660000000 -0.0031260000000 -0.3160360000000 1.0   0.03
O      2  0.3027480000000 -0.2711620000000  0.1675180000000 1.0   0.03
O      2  0.3363990000000  0.0521340000000  0.4176260000000 1.0   0.06
O      2  0.1102870000000 -0.3507470000000  0.4185210000000 1.0   0.07
O      2 -0.0090660000000  0.0031260000000  0.3160360000000 1.0   0.03
O      2 -0.3366960000000 -0.2205190000000 -0.0819550000000 1.0   0.04
O      2 -0.3247690000000  0.1036750000000  0.1715000000000 1.0   0.05
O      2 -0.2207480000000 -0.3442620000000  0.1466520000000 1.0   0.01
O      2  0.3366960000000  0.2205190000000  0.0819550000000 1.0   0.04
O      2  0.3247690000000 -0.1036750000000 -0.1715000000000 1.0   0.05
O      2  0.2207480000000  0.3442620000000 -0.1466520000000 1.0   0.01
O      2  0.0000000000000  0.0000000000000  0.0000000000000 1.0   0.01
O      2 -0.5000000000000 -0.5000000000000  0.5000000000000 1.0   0.14
P      3 -0.1824600000000  0.1365490000000 -0.3188340000000 1.0   0.00
P      3  0.1824600000000 -0.1365490000000  0.3188340000000 1.0   0.00
P      3 -0.2263270000000 -0.1266250000000  0.0631720000000 1.0   0.01
P      3  0.2263270000000  0.1266250000000 -0.0631720000000 1.0   0.01
Fe     4 -0.3351630000000  0.6030200000000 -0.3018220000000 1.0   3.87
Fe     4  0.3351630000000 -0.6030200000000  0.3018220000000 1.0   3.87
Fe     4 -0.3026630000000  0.1759220000000  0.3984800000000 1.0   3.86
Fe     4  0.3026630000000 -0.1759220000000 -0.3984800000000 1.0   3.86
END
