TITL 4LFP_actual-201126-093442-c0b170 -0.0007 302.264651 -1.21480562E+004 16.0000 16.2908 28 (P-1) n - 1
REM
REM Run started: Thu, 26 Nov 2020 11:20:53 +0000 in /lustre/scratch/uccabz1/launch_tmp/launcher_2020-11-26-09-34-15-139025
REM CASTEP 20.1 from code version af48c487+ pr-geom-scf-spinfix Tue Jun 2 15:39:59 2020 +0100
REM Functional Perdew Burke Ernzerhof Relativity Koelling-Harmon Dispersion off
REM Cut-off 300.0000 eV Grid scale 1.7500 Gmax 15.5288 1/A FBSC none
REM MP grid 3 3 2 Offset 0.000 0.000 0.000 No. kpts 9 Spacing 0.07
REM Total runtime: 6778.12 s
REM Overall efficiency: 76.875 %
REM
REM 4LFP_actual.cell (cb690b6ff984803026f07b083c6867a4)
REM
REM compiler GCC version 4.9.2
REM options -cpp -iprefix /lustre/shared/ucl/apps/gcc/4.9.2/bin/../lib/gcc/x86_64-unknown-linux-gnu/4.9.2/ -mtune=corei7 -march=x86-64 -g -Og
REM COMMAND_LINE
REM seed -2037709252 1838872031 -352135322 -1500919238 1661373373 683398921 365386447 -1517557956 -1567747132 -746927370 1614985083 -402656753
REM
REM P 3|1.8|4|5|5|30:31:32(qc=5)
REM O 2|1.5|12|13|15|20:21(qc=5)
REM Li 1|1.3|8|9|10|10U:20(qc=5)
REM Fe 3|2.2|2.0|1.0|8|9|10|40:41:32(qc=5)
REM Fe d:4.0 
REM
CELL 1.54180    5.39935    5.77497   10.58605  103.70620   94.45564  107.29082
LATT -1
SFAC Li O  P  Fe 
Li     1  0.0949790000000 -0.4178070000000 -0.1038610000000 1.0  -0.05
Li     1 -0.0949790000000  0.4178070000000  0.1038610000000 1.0  -0.05
Li     1  0.2439210000000 -0.1513720000000  0.4325600000000 1.0  -0.03
Li     1 -0.2439210000000  0.1513720000000 -0.4325600000000 1.0  -0.03
O      2  0.6048940000000  0.4065130000000 -0.3663610000000 1.0   0.04
O      2  0.2260240000000  0.0122520000000 -0.3960030000000 1.0   0.04
O      2  0.3000600000000  0.3673370000000 -0.1901430000000 1.0   0.05
O      2  0.1297580000000  0.4140780000000 -0.4085420000000 1.0   0.05
O      2 -0.6048940000000 -0.4065130000000  0.3663610000000 1.0   0.04
O      2 -0.2260240000000 -0.0122520000000  0.3960030000000 1.0   0.04
O      2 -0.3000600000000 -0.3673370000000  0.1901430000000 1.0   0.05
O      2 -0.1297580000000 -0.4140780000000  0.4085420000000 1.0   0.05
O      2  0.4680900000000  0.1518100000000  0.1105540000000 1.0   0.06
O      2  0.1676830000000 -0.2745460000000  0.0878480000000 1.0   0.03
O      2  0.2863090000000  0.0491770000000  0.3162230000000 1.0   0.04
O      2 -0.0016040000000  0.1200790000000  0.1453460000000 1.0   0.07
O      2 -0.4680900000000 -0.1518100000000 -0.1105540000000 1.0   0.06
O      2 -0.1676830000000  0.2745460000000 -0.0878480000000 1.0   0.03
O      2 -0.2863090000000 -0.0491770000000 -0.3162230000000 1.0   0.04
O      2  0.0016040000000 -0.1200790000000 -0.1453460000000 1.0   0.07
P      3  0.3210630000000  0.3047260000000 -0.3401220000000 1.0   0.02
P      3 -0.3210630000000 -0.3047260000000  0.3401220000000 1.0   0.02
P      3  0.2261130000000  0.0062390000000  0.1669070000000 1.0   0.00
P      3 -0.2261130000000 -0.0062390000000 -0.1669070000000 1.0   0.00
Fe     4  0.3736470000000  0.1483290000000 -0.0870560000000 1.0   3.83
Fe     4 -0.3736470000000 -0.1483290000000  0.0870560000000 1.0   3.83
Fe     4  0.0668320000000  0.3014230000000  0.3737270000000 1.0   3.84
Fe     4 -0.0668320000000 -0.3014230000000 -0.3737270000000 1.0   3.84
END
