TITL 4LFP_actual-201126-231542-9417dc 0.0098 285.198473 -1.21465673E+004 16.0000 16.2551 28 (P21) n - 1
REM
REM Run started: Fri, 27 Nov 2020 04:59:56 +0000 in /lustre/scratch/uccabz1/launch_tmp/launcher_2020-11-26-23-14-48-623077
REM CASTEP 20.1 from code version af48c487+ pr-geom-scf-spinfix Tue Jun 2 15:39:59 2020 +0100
REM Functional Perdew Burke Ernzerhof Relativity Koelling-Harmon Dispersion off
REM Cut-off 300.0000 eV Grid scale 1.7500 Gmax 15.5288 1/A FBSC none
REM MP grid 3 4 2 Offset 0.000 0.000 0.000 No. kpts 6 Spacing 0.07
REM Total runtime: 22889.2 s
REM Overall efficiency: 93.9 %
REM
REM 4LFP_actual.cell (cb690b6ff984803026f07b083c6867a4)
REM
REM compiler GCC version 4.9.2
REM options -cpp -iprefix /lustre/shared/ucl/apps/gcc/4.9.2/bin/../lib/gcc/x86_64-unknown-linux-gnu/4.9.2/ -mtune=corei7 -march=x86-64 -g -Og
REM COMMAND_LINE
REM seed -859657212 -336957307 1144368853 -2050676223 -1349567660 1532890919 -1757358771 218953543 2100148037 1294025162 1260279713 1839878376
REM
REM P 3|1.8|4|5|5|30:31:32(qc=5)
REM O 2|1.5|12|13|15|20:21(qc=5)
REM Li 1|1.3|8|9|10|10U:20(qc=5)
REM Fe 3|2.2|2.0|1.0|8|9|10|40:41:32(qc=5)
REM Fe d:4.0 
REM
CELL 1.54180    5.86520    5.36612   10.98067   90.00000   90.00000  124.38811
LATT -1
SFAC Li O  P  Fe 
Li     1  0.2940420000000 -0.2155740000000  0.0907800000000 1.0  -0.05
Li     1 -0.2940420000000  0.2155740000000 -0.4092200000000 1.0  -0.05
Li     1  0.4696100000000  0.3622170000000  0.1941050000000 1.0  -0.03
Li     1 -0.4696100000000 -0.3622170000000 -0.3058950000000 1.0  -0.03
O      2  0.0068400000000  0.2880410000000  0.4881850000000 1.0   0.03
O      2  0.4567030000000  0.7997580000000  0.5201620000000 1.0   0.05
O      2  0.4486600000000  0.3308840000000  0.5519030000000 1.0   0.04
O      2  0.4131600000000  0.5073080000000  0.3364550000000 1.0   0.02
O      2 -0.0068400000000 -0.2880410000000 -0.0118150000000 1.0   0.03
O      2 -0.4567030000000 -0.7997580000000  0.0201620000000 1.0   0.05
O      2 -0.4486600000000 -0.3308840000000  0.0519030000000 1.0   0.04
O      2 -0.4131600000000 -0.5073080000000 -0.1635450000000 1.0   0.02
O      2 -0.0739250000000 -0.0231930000000  0.2390130000000 1.0   0.06
O      2 -0.1419010000000 -0.5442350000000  0.2376610000000 1.0   0.04
O      2  0.3318050000000 -0.0570950000000  0.2524330000000 1.0   0.02
O      2 -0.0203580000000 -0.2335330000000  0.4305440000000 1.0   0.05
O      2  0.0739250000000  0.0231930000000 -0.2609870000000 1.0   0.06
O      2  0.1419010000000  0.5442350000000 -0.2623390000000 1.0   0.04
O      2 -0.3318050000000  0.0570950000000 -0.2475670000000 1.0   0.02
O      2  0.0203580000000  0.2335330000000 -0.0694560000000 1.0   0.05
P      3  0.3253010000000  0.4666880000000  0.4692670000000 1.0   0.00
P      3 -0.3253010000000 -0.4666880000000 -0.0307330000000 1.0   0.00
P      3  0.0251090000000 -0.2163460000000  0.2934890000000 1.0   0.02
P      3 -0.0251090000000  0.2163460000000 -0.2065110000000 1.0   0.02
Fe     4  0.1515580000000 -0.1425000000000 -0.4073930000000 1.0   3.86
Fe     4 -0.1515580000000  0.1425000000000  0.0926070000000 1.0   3.86
Fe     4 -0.3124520000000  0.0642970000000  0.3565160000000 1.0   3.89
Fe     4  0.3124520000000 -0.0642970000000 -0.1434840000000 1.0   3.89
END
