TITL 4LFP-201124-082221-47c9ac -0.0678 169.637640 -6.07206889E+003 8.00000 8.19457 14 (Cm) n - 1
REM
REM Run started: Tue, 24 Nov 2020 10:38:32 +0000 in /lustre/scratch/uccabz1/launch_tmp/launcher_2020-11-24-08-22-15-071607
REM CASTEP 20.1 from code version af48c487+ pr-geom-scf-spinfix Tue Jun 2 15:39:59 2020 +0100
REM Functional Perdew Burke Ernzerhof Relativity Koelling-Harmon Dispersion off
REM Cut-off 300.0000 eV Grid scale 1.7500 Gmax 15.5288 1/A FBSC none
REM MP grid 4 3 4 Offset 0.000 0.000 0.000 No. kpts 24 Spacing 0.07
REM Total runtime: 9191.37 s
REM Overall efficiency: 78.25 %
REM
REM 4LFP.cell (a815d5d25b9f25a0a111bfe3624e67be)
REM
REM compiler GCC version 4.9.2
REM options -cpp -iprefix /lustre/shared/ucl/apps/gcc/4.9.2/bin/../lib/gcc/x86_64-unknown-linux-gnu/4.9.2/ -mtune=corei7 -march=x86-64 -g -Og
REM COMMAND_LINE
REM seed 1912535563 1043054795 -179349417 16154368 502215876 2121153732 621560649 1178750932 564953926 -1601714456 -564485559 15646398
REM
REM P 3|1.8|4|5|5|30:31:32(qc=5)
REM O 2|1.5|12|13|15|20:21(qc=5)
REM Li 1|1.3|8|9|10|10U:20(qc=5)
REM Fe 3|2.2|2.0|1.0|8|9|10|40:41:32(qc=5)
REM Fe d:4.0 
REM
CELL 1.54180    5.00715    7.47059    6.38330  125.75551  113.01394   90.12259
LATT -1
SFAC Li O  P  Fe 
Li     1 -0.3296080000000  0.0852030000000  0.0000000000000 1.0  -0.05
Li     1  0.0682180000000 -0.4002460000000  0.0000000000000 1.0  -0.05
O      2 -0.6884780000000 -0.2151580000000 -0.2843940000000 1.0   0.05
O      2 -0.5746030000000 -0.4217350000000 -0.7176970000000 1.0   0.05
O      2 -0.3359000000000 -0.4625460000000 -0.3256860000000 1.0   0.06
O      2 -0.9158100000000 -0.6492340000000 -0.6877440000000 1.0   0.06
O      2 -0.4040850000000  0.0692360000000  0.2843940000000 1.0   0.05
O      2  0.1430940000000  0.2959620000000  0.7176970000000 1.0   0.05
O      2 -0.0102150000000 -0.1368600000000  0.3256860000000 1.0   0.06
O      2 -0.2280660000000  0.0385100000000  0.6877440000000 1.0   0.06
P      3 -0.6300560000000 -0.4387870000000 -0.5053540000000 1.0  -0.00
P      3 -0.1247020000000  0.0665670000000  0.5053540000000 1.0  -0.00
Fe     4  0.3682050000000  0.2061080000000  0.4972040000000 1.0   3.83
Fe     4 -0.1289990000000 -0.2910970000000 -0.4972040000000 1.0   3.83
END
