TITL 4LFP-201124-072306-17f853 0.0085 140.985234 -6.07453191E+003 8.00000 8.14410 14 (Cmcm) n - 1
REM
REM Run started: Tue, 24 Nov 2020 09:16:00 +0000 in /scratch/scratch/uccabz1/launch_tmp/launcher_2020-11-24-07-23-04-247426
REM CASTEP 19.11| from code version Version unavailable
REM Functional Perdew Burke Ernzerhof Relativity Koelling-Harmon Dispersion off
REM Cut-off 300.0000 eV Grid scale 1.7500 Gmax 15.5288 1/A FBSC none
REM MP grid 4 4 3 Offset 0.000 0.000 0.000 No. kpts 24 Spacing 0.07
REM Total runtime: 7103.08 s
REM Overall efficiency: 84 %
REM
REM 4LFP.cell (a815d5d25b9f25a0a111bfe3624e67be)
REM
REM compiler GCC version 4.9.2
REM options -cpp -iprefix /scratch/UCL/applications/gcc/4.9.2/bin/../lib/gcc/x86_64-unknown-linux-gnu/4.9.2/ -mtune=corei7 -march=x86-64 -g -O2
REM COMMAND_LINE
REM seed 500712450 -335762760 -577583196 -218670170 -349972480 1810713349 -1240032439 -77378794 1963287694 -2000810763 1602290474 1793253093
REM
REM P 3|1.8|4|5|5|30:31:32(qc=5)
REM O 2|1.5|12|13|15|20:21(qc=5)
REM Li 1|1.3|8|9|10|10U:20(qc=5)
REM Fe 3|2.2|2.0|1.0|8|9|10|40:41:32(qc=5)
REM Fe d:4.0 
REM
CELL 1.54180    5.59864    5.01085    6.05921   89.89618   89.81416   56.03750
LATT -1
SFAC Li O  P  Fe 
Li     1 -0.3998440000000  0.7996870000000  0.0000000000000 1.0  -0.04
Li     1 -0.7248540000000  0.4497080000000  0.5000000000000 1.0  -0.04
O      2  0.1828280000000  0.1897870000000  0.0003390000000 1.0   0.05
O      2  0.6887620000000 -0.3787590000000 -0.2891070000000 1.0   0.03
O      2  0.6916140000000  0.0608380000000 -0.4995840000000 1.0   0.05
O      2  1.1855590000000 -0.3715990000000 -0.2109260000000 1.0   0.03
O      2 -0.3726150000000  0.1897870000000 -0.0003390000000 1.0   0.05
O      2 -0.3100030000000 -0.3787590000000  0.2891070000000 1.0   0.03
O      2 -0.7524520000000  0.0608380000000  0.4995840000000 1.0   0.05
O      2 -0.8139600000000 -0.3715990000000  0.2109260000000 1.0   0.03
P      3  0.2891340000000 -0.5782680000000  0.0000000000000 1.0   0.02
P      3 -0.4139920000000 -0.1720160000000  0.5000000000000 1.0   0.02
Fe     4 -0.0629170000000  0.1230770000000  0.2502400000000 1.0   3.86
Fe     4 -0.0601600000000  0.1230770000000 -0.2502400000000 1.0   3.86
END
