TITL 4LFP-201124-074728-5b46e2 0.0049 149.534516 -6.07302270E+003 8.00000 8.07211 14 (P21) n - 1
REM
REM Run started: Tue, 24 Nov 2020 08:57:21 +0000 in /lustre/scratch/uccabz1/launch_tmp/launcher_2020-11-24-07-47-26-328720
REM CASTEP 20.1 from code version af48c487+ pr-geom-scf-spinfix Tue Jun 2 15:39:59 2020 +0100
REM Functional Perdew Burke Ernzerhof Relativity Koelling-Harmon Dispersion off
REM Cut-off 300.0000 eV Grid scale 1.7500 Gmax 15.5288 1/A FBSC none
REM MP grid 4 4 2 Offset 0.000 0.000 0.000 No. kpts 8 Spacing 0.07
REM Total runtime: 4296.19 s
REM Overall efficiency: 92.7778 %
REM
REM 4LFP.cell (a815d5d25b9f25a0a111bfe3624e67be)
REM
REM compiler GCC version 4.9.2
REM options -cpp -iprefix /lustre/shared/ucl/apps/gcc/4.9.2/bin/../lib/gcc/x86_64-unknown-linux-gnu/4.9.2/ -mtune=corei7 -march=x86-64 -g -Og
REM COMMAND_LINE
REM seed 819777498 1847574899 705549679 38652929 -1830388922 -1435502666 -2099650853 1729197042 -1017785053 1452367609 810418107 -1860404892
REM
REM P 3|1.8|4|5|5|30:31:32(qc=5)
REM O 2|1.5|12|13|15|20:21(qc=5)
REM Li 1|1.3|8|9|10|10U:20(qc=5)
REM Fe 3|2.2|2.0|1.0|8|9|10|40:41:32(qc=5)
REM Fe d:4.0 
REM
CELL 1.54180    4.14953    4.43638    8.13520   90.00000   90.00000   86.85506
LATT -1
SFAC Li O  P  Fe 
Li     1 -0.3009710000000 -0.3117390000000  0.1060090000000 1.0  -0.05
Li     1  0.3009710000000  0.3117390000000 -0.3939910000000 1.0  -0.05
O      2 -0.4584340000000 -0.4705830000000  0.3111970000000 1.0   0.04
O      2 -0.0532130000000 -0.4364400000000  0.5461260000000 1.0   0.04
O      2 -0.0677730000000 -0.0868470000000  0.2871520000000 1.0   0.04
O      2 -0.4835350000000 -0.0290610000000  0.5161120000000 1.0   0.04
O      2  0.4584340000000  0.4705830000000 -0.1888030000000 1.0   0.04
O      2  0.0532130000000  0.4364400000000  0.0461260000000 1.0   0.04
O      2  0.0677730000000  0.0868470000000 -0.2128480000000 1.0   0.04
O      2  0.4835350000000  0.0290610000000  0.0161120000000 1.0   0.04
P      3 -0.2593620000000 -0.2570400000000  0.4182840000000 1.0   0.01
P      3  0.2593620000000  0.2570400000000 -0.0817160000000 1.0   0.01
Fe     4 -0.2676250000000 -0.1956730000000 -0.2391850000000 1.0   3.89
Fe     4  0.2676250000000  0.1956730000000  0.2608150000000 1.0   3.89
END
