TITL 4LFP-201124-070405-ecb647 -0.0171 154.712634 -6.07332166E+003 8.00000 8.12786 14 (C2) n - 1
REM
REM Run started: Tue, 24 Nov 2020 07:29:39 +0000 in /scratch/scratch/uccabz1/launch_tmp/launcher_2020-11-24-07-03-57-216703
REM CASTEP 19.11| from code version Version unavailable
REM Functional Perdew Burke Ernzerhof Relativity Koelling-Harmon Dispersion off
REM Cut-off 300.0000 eV Grid scale 1.7500 Gmax 15.5288 1/A FBSC none
REM MP grid 3 3 4 Offset 0.000 0.000 0.000 No. kpts 12 Spacing 0.07
REM Total runtime: 2109.02 s
REM Overall efficiency: 74 %
REM
REM 4LFP.cell (a815d5d25b9f25a0a111bfe3624e67be)
REM
REM compiler GCC version 4.9.2
REM options -cpp -iprefix /scratch/UCL/applications/gcc/4.9.2/bin/../lib/gcc/x86_64-unknown-linux-gnu/4.9.2/ -mtune=corei7 -march=x86-64 -g -O2
REM COMMAND_LINE
REM seed -1464981087 -1126243781 -1090118832 -1949420823 -1612088381 -456827230 353358318 -2129008761 259507202 -1058624341 -1266145080 -2020064336
REM
REM P 3|1.8|4|5|5|30:31:32(qc=5)
REM O 2|1.5|12|13|15|20:21(qc=5)
REM Li 1|1.3|8|9|10|10U:20(qc=5)
REM Fe 3|2.2|2.0|1.0|8|9|10|40:41:32(qc=5)
REM Fe d:4.0 
REM
CELL 1.54180    5.79389    5.79389    5.65594   64.59125   64.59125   81.78279
LATT -1
SFAC Li O  P  Fe 
Li     1 -0.3745670000000  0.0779680000000 -0.0042140000000 1.0  -0.04
Li     1 -0.0779680000000  0.3745670000000  0.0042140000000 1.0  -0.04
O      2 -0.1415820000000 -0.3894860000000  0.2235590000000 1.0   0.04
O      2  0.2389880000000 -0.3274900000000  0.3126400000000 1.0   0.05
O      2 -0.1013160000000 -0.6799780000000  0.6935960000000 1.0   0.02
O      2  0.1956060000000 -0.7117420000000  0.2204910000000 1.0   0.04
O      2  0.3894860000000  0.1415820000000 -0.2235590000000 1.0   0.04
O      2  0.3274900000000 -0.2389880000000 -0.3126400000000 1.0   0.05
O      2  0.6799780000000  0.1013160000000 -0.6935960000000 1.0   0.02
O      2  0.7117420000000 -0.1956060000000 -0.2204910000000 1.0   0.04
P      3  0.0477620000000 -0.5268230000000  0.3650860000000 1.0   0.01
P      3  0.5268230000000 -0.0477620000000 -0.3650860000000 1.0   0.01
Fe     4 -0.5006180000000  0.5006180000000  0.5000000000000 1.0   3.87
Fe     4  0.0660370000000 -0.0660370000000 -0.5000000000000 1.0   3.87
END
