TITL 4LFP-201124-124702-1a1c9e 0.0107 163.012642 -6.07153361E+003 8.00000 8.12387 14 (P-1) n - 1
REM
REM Run started: Tue, 24 Nov 2020 15:08:34 +0000 in /lustre/scratch/uccabz1/launch_tmp/launcher_2020-11-24-12-47-00-542521
REM CASTEP 20.1 from code version af48c487+ pr-geom-scf-spinfix Tue Jun 2 15:39:59 2020 +0100
REM Functional Perdew Burke Ernzerhof Relativity Koelling-Harmon Dispersion off
REM Cut-off 300.0000 eV Grid scale 1.7500 Gmax 15.5288 1/A FBSC none
REM MP grid 4 3 3 Offset 0.000 0.000 0.000 No. kpts 18 Spacing 0.07
REM Total runtime: 9702.79 s
REM Overall efficiency: 95.5556 %
REM
REM 4LFP.cell (a815d5d25b9f25a0a111bfe3624e67be)
REM
REM compiler GCC version 4.9.2
REM options -cpp -iprefix /lustre/shared/ucl/apps/gcc/4.9.2/bin/../lib/gcc/x86_64-unknown-linux-gnu/4.9.2/ -mtune=corei7 -march=x86-64 -g -Og
REM COMMAND_LINE
REM seed 1979877627 -721631789 724118937 1367001425 58927084 2058943218 -1730855087 -365887638 1387076187 -268703235 220975689 193638513
REM
REM P 3|1.8|4|5|5|30:31:32(qc=5)
REM O 2|1.5|12|13|15|20:21(qc=5)
REM Li 1|1.3|8|9|10|10U:20(qc=5)
REM Fe 3|2.2|2.0|1.0|8|9|10|40:41:32(qc=5)
REM Fe d:4.0 
REM
CELL 1.54180    4.90113    5.20219    6.97989   79.98582   78.03414   70.46117
LATT -1
SFAC Li O  P  Fe 
Li     1  0.2559670000000 -0.3138110000000  0.5452500000000 1.0  -0.05
Li     1 -0.2559670000000  0.3138110000000 -0.5452500000000 1.0  -0.05
O      2 -0.3687180000000  0.1090450000000  0.2921550000000 1.0   0.03
O      2 -0.4920340000000 -0.3333050000000  0.3007070000000 1.0   0.03
O      2 -0.0115100000000 -0.2785520000000  0.0895500000000 1.0   0.03
O      2  0.3687180000000 -0.1090450000000 -0.2921550000000 1.0   0.03
O      2  0.4920340000000  0.3333050000000 -0.3007070000000 1.0   0.03
O      2  0.0115100000000  0.2785520000000 -0.0895500000000 1.0   0.03
O      2  0.0000000000000  0.5000000000000 -0.5000000000000 1.0   0.19
O      2 -0.5000000000000  0.0000000000000  0.0000000000000 1.0   0.01
P      3 -0.3246390000000 -0.1380560000000  0.1818600000000 1.0   0.01
P      3  0.3246390000000  0.1380560000000 -0.1818600000000 1.0   0.01
Fe     4 -0.2644270000000 -0.4261420000000 -0.2443260000000 1.0   3.84
Fe     4  0.2644270000000  0.4261420000000  0.2443260000000 1.0   3.84
END
