TITL 4LFP_actual-201126-153953-9ea320 -0.0078 338.261414 -1.21437637E+004 16.0000 16.2584 28 (P-1) n - 1
REM
REM Run started: Thu, 26 Nov 2020 20:36:29 +0000 in /lustre/scratch/uccabz1/launch_tmp/launcher_2020-11-26-15-39-26-011129
REM CASTEP 20.1 from code version af48c487+ pr-geom-scf-spinfix Tue Jun 2 15:39:59 2020 +0100
REM Functional Perdew Burke Ernzerhof Relativity Koelling-Harmon Dispersion off
REM Cut-off 300.0000 eV Grid scale 1.7500 Gmax 15.5288 1/A FBSC none
REM MP grid 4 2 2 Offset 0.000 0.000 0.000 No. kpts 8 Spacing 0.07
REM Total runtime: 19241.4 s
REM Overall efficiency: 78 %
REM
REM 4LFP_actual.cell (cb690b6ff984803026f07b083c6867a4)
REM
REM compiler GCC version 4.9.2
REM options -cpp -iprefix /lustre/shared/ucl/apps/gcc/4.9.2/bin/../lib/gcc/x86_64-unknown-linux-gnu/4.9.2/ -mtune=corei7 -march=x86-64 -g -Og
REM COMMAND_LINE
REM seed -1498159038 612437510 1367883598 934386994 -727267495 844543911 1775418116 1192180123 -530687592 481236192 2031672509 -287550474
REM
REM P 3|1.8|4|5|5|30:31:32(qc=5)
REM O 2|1.5|12|13|15|20:21(qc=5)
REM Li 1|1.3|8|9|10|10U:20(qc=5)
REM Fe 3|2.2|2.0|1.0|8|9|10|40:41:32(qc=5)
REM Fe d:4.0 
REM
CELL 1.54180    5.04776   10.08279    7.23386   84.92657   84.74402  111.45089
LATT -1
SFAC Li O  P  Fe 
Li     1 -0.5000000000000 -0.5000000000000  0.0000000000000 1.0  -0.06
Li     1  0.0000000000000  0.0000000000000  0.5000000000000 1.0  -0.01
Li     1  0.0000000000000  0.0000000000000  0.0000000000000 1.0  -0.05
Li     1 -0.5000000000000 -0.5000000000000 -0.5000000000000 1.0  -0.03
O      2 -0.0827410000000 -0.0733030000000  0.2513810000000 1.0   0.00
O      2 -0.2844120000000 -0.2063460000000  0.5643080000000 1.0   0.01
O      2 -0.6212070000000 -0.2425680000000  0.3194690000000 1.0   0.04
O      2 -0.2472170000000 -0.3519530000000  0.2993560000000 1.0   0.04
O      2  0.0827410000000  0.0733030000000 -0.2513810000000 1.0   0.00
O      2  0.2844120000000  0.2063460000000 -0.5643080000000 1.0   0.01
O      2  0.6212070000000  0.2425680000000 -0.3194690000000 1.0   0.04
O      2  0.2472170000000  0.3519530000000 -0.2993560000000 1.0   0.04
O      2  0.3347810000000  0.2903480000000  0.0986160000000 1.0   0.04
O      2  0.2161170000000  0.4391140000000  0.3356230000000 1.0   0.03
O      2 -0.1634360000000  0.1914050000000  0.2994190000000 1.0   0.05
O      2 -0.3347810000000 -0.2903480000000 -0.0986160000000 1.0   0.04
O      2 -0.2161170000000 -0.4391140000000 -0.3356230000000 1.0   0.03
O      2  0.1634360000000 -0.1914050000000 -0.2994190000000 1.0   0.05
O      2 -0.5000000000000  0.0000000000000  0.0000000000000 1.0   0.29
O      2  1.0000000000000  0.5000000000000  0.0000000000000 1.0   0.22
P      3 -0.3088120000000 -0.2178840000000  0.3368490000000 1.0   0.01
P      3  0.3088120000000  0.2178840000000 -0.3368490000000 1.0   0.01
P      3  0.1517940000000  0.2874940000000  0.2852370000000 1.0   0.02
P      3 -0.1517940000000 -0.2874940000000 -0.2852370000000 1.0   0.02
Fe     4  0.0936790000000 -0.3981940000000  0.2052360000000 1.0   3.80
Fe     4 -0.0936790000000  0.3981940000000 -0.2052360000000 1.0   3.80
Fe     4 -0.5698940000000 -0.1633920000000 -0.1118440000000 1.0   3.78
Fe     4  0.5698940000000  0.1633920000000  0.1118440000000 1.0   3.78
END
