TITL 4LFP_actual-201126-182356-46921c -0.1572 302.974950 -1.21467519E+004 16.0000 16.2935 28 (P-1) n - 1
REM
REM Run started: Fri, 27 Nov 2020 12:36:22 +0000 in /lustre/scratch/uccabz1/launch_tmp/launcher_2020-11-27-10-33-20-130238
REM CASTEP 20.1 from code version af48c487+ pr-geom-scf-spinfix Tue Jun 2 15:39:59 2020 +0100
REM Functional Perdew Burke Ernzerhof Relativity Koelling-Harmon Dispersion off
REM Cut-off 300.0000 eV Grid scale 1.7500 Gmax 15.5288 1/A FBSC none
REM MP grid 4 3 2 Offset 0.000 0.000 0.000 No. kpts 12 Spacing 0.07
REM Total runtime: 63804.6 s
REM Overall efficiency: 98.4615 %
REM
REM
REM
REM compiler GCC version 4.9.2
REM options -cpp -iprefix /scratch/UCL/applications/gcc/4.9.2/bin/../lib/gcc/x86_64-unknown-linux-gnu/4.9.2/ -mtune=corei7 -march=x86-64 -g -O2
REM COMMAND_LINE
REM seed -756266533 1976456697 -831684200 -598862685 -1982876089 2097196024 -611093556 -551019065 -1165690052 888865577 1759732578 200637220
REM
REM P 3|1.8|4|5|5|30:31:32(qc=5)
REM O 2|1.5|12|13|15|20:21(qc=5)
REM Li 1|1.3|8|9|10|10U:20(qc=5)
REM Fe 3|2.2|2.0|1.0|8|9|10|40:41:32(qc=5)
REM Fe d:4.0 
REM
CELL 1.54180    5.41921    5.70029   11.97098   71.44050   75.41927   60.46070
LATT -1
SFAC Li O  P  Fe 
Li     1 -0.3611790000000  0.4170120000000 -0.1075720000000 1.0  -0.05
Li     1  0.3611790000000 -0.4170120000000  0.1075720000000 1.0  -0.05
Li     1  0.3893950000000 -0.2938720000000  0.3417950000000 1.0  -0.04
Li     1 -0.3893950000000  0.2938720000000 -0.3417950000000 1.0  -0.04
O      2 -0.1562460000000 -0.0308420000000  0.2104370000000 1.0   0.06
O      2 -0.0329530000000 -0.2388180000000  0.0349040000000 1.0   0.04
O      2 -0.4659360000000 -0.2345180000000  0.1742260000000 1.0   0.04
O      2 -0.4998410000000  0.2261040000000  0.0577960000000 1.0   0.04
O      2  0.1562460000000  0.0308420000000 -0.2104370000000 1.0   0.06
O      2  0.0329530000000  0.2388180000000 -0.0349040000000 1.0   0.04
O      2  0.4659360000000  0.2345180000000 -0.1742260000000 1.0   0.04
O      2  0.4998410000000 -0.2261040000000 -0.0577960000000 1.0   0.04
O      2  0.1412590000000 -0.9103260000000  0.3132900000000 1.0   0.06
O      2  0.2695420000000 -0.5443010000000  0.3119270000000 1.0   0.03
O      2 -0.2508920000000 -0.5263740000000  0.3942520000000 1.0   0.04
O      2  0.1850890000000 -0.8345710000000  0.5063500000000 1.0   0.05
O      2 -0.1412590000000  0.9103260000000 -0.3132900000000 1.0   0.06
O      2 -0.2695420000000  0.5443010000000 -0.3119270000000 1.0   0.03
O      2  0.2508920000000  0.5263740000000 -0.3942520000000 1.0   0.04
O      2 -0.1850890000000  0.8345710000000 -0.5063500000000 1.0   0.05
P      3 -0.2855160000000 -0.0728840000000  0.1195490000000 1.0   0.01
P      3  0.2855160000000  0.0728840000000 -0.1195490000000 1.0   0.01
P      3  0.0779210000000 -0.6910650000000  0.3844090000000 1.0   0.01
P      3 -0.0779210000000  0.6910650000000 -0.3844090000000 1.0   0.01
Fe     4  0.1343970000000  0.1500620000000  0.1335330000000 1.0   3.85
Fe     4 -0.1343970000000 -0.1500620000000 -0.1335330000000 1.0   3.85
Fe     4  0.3197010000000 -0.1508170000000 -0.3573690000000 1.0   3.86
Fe     4 -0.3197010000000  0.1508170000000  0.3573690000000 1.0   3.86
END
