TITL 4LFP-201124-110829-6597e0 -0.0086 164.364654 -6.07079600E+003 8.00000 8.29298 14 (I41) n - 1
REM
REM Run started: Tue, 24 Nov 2020 11:56:43 +0000 in /scratch/scratch/uccabz1/launch_tmp/launcher_2020-11-24-11-08-27-675741
REM CASTEP 19.11| from code version Version unavailable
REM Functional Perdew Burke Ernzerhof Relativity Koelling-Harmon Dispersion off
REM Cut-off 300.0000 eV Grid scale 1.7500 Gmax 15.5288 1/A FBSC none
REM MP grid 3 3 3 Offset 0.000 0.000 0.000 No. kpts 6 Spacing 0.07
REM Total runtime: 3251.29 s
REM Overall efficiency: 79.3333 %
REM
REM 4LFP.cell (a815d5d25b9f25a0a111bfe3624e67be)
REM
REM compiler GCC version 4.9.2
REM options -cpp -iprefix /scratch/UCL/applications/gcc/4.9.2/bin/../lib/gcc/x86_64-unknown-linux-gnu/4.9.2/ -mtune=corei7 -march=x86-64 -g -O2
REM COMMAND_LINE
REM seed -673337358 1878826236 -143673562 1102694169 1410417237 1399905686 -2050752864 1467688180 -1770908048 -1211098758 -1560275059 188589658
REM
REM P 3|1.8|4|5|5|30:31:32(qc=5)
REM O 2|1.5|12|13|15|20:21(qc=5)
REM Li 1|1.3|8|9|10|10U:20(qc=5)
REM Fe 3|2.2|2.0|1.0|8|9|10|40:41:32(qc=5)
REM Fe d:4.0 
REM
CELL 1.54180    5.23848    5.23848    7.04245  111.83418  111.83418   90.00000
LATT -1
SFAC Li O  P  Fe 
Li     1 -0.0272580000000 -0.0272580000000 -0.0545150000000 1.0  -0.05
Li     1 -0.2772580000000  0.2227420000000 -0.5545150000000 1.0  -0.05
O      2 -0.1396850000000 -0.1567080000000  0.3466140000000 1.0   0.05
O      2 -0.0321590000000 -0.3990510000000  0.6129460000000 1.0   0.04
O      2 -0.5137000000000 -0.4966780000000  0.3466140000000 1.0   0.05
O      2 -0.3548950000000  0.0119970000000  0.6129460000000 1.0   0.04
O      2  0.5932920000000 -0.2637000000000 -0.1533860000000 1.0   0.05
O      2  0.3509490000000 -0.1048950000000  0.1129460000000 1.0   0.04
O      2  0.2533220000000  0.1103150000000 -0.1533860000000 1.0   0.05
O      2  0.7619970000000  0.2178410000000  0.1129460000000 1.0   0.04
P      3 -0.5044380000000 -0.0044380000000 -0.0088750000000 1.0   0.01
P      3 -0.2544380000000 -0.2544380000000 -0.5088750000000 1.0   0.01
Fe     4  0.4245210000000  0.4245210000000 -0.1509580000000 1.0   3.85
Fe     4  0.1745210000000 -0.3254790000000  0.3490420000000 1.0   3.85
END
