TITL 4LFP-201124-094827-2944a7 0.0112 152.291729 -6.06261672E+003 -4.00000 4.97467 14 (Cm) n - 1
REM
REM Run started: Tue, 24 Nov 2020 11:07:54 +0000 in /lustre/scratch/uccabz1/launch_tmp/launcher_2020-11-24-10-26-43-572027
REM CASTEP 20.1 from code version af48c487+ pr-geom-scf-spinfix Tue Jun 2 15:39:59 2020 +0100
REM Functional Perdew Burke Ernzerhof Relativity Koelling-Harmon Dispersion off
REM Cut-off 300.0000 eV Grid scale 1.7500 Gmax 15.5288 1/A FBSC none
REM MP grid 5 3 3 Offset 0.000 0.000 0.000 No. kpts 16 Spacing 0.07
REM Total runtime: 4166.04 s
REM Overall efficiency: 84.5 %
REM
REM
REM
REM compiler GCC version 4.9.2
REM options -cpp -iprefix /scratch/UCL/applications/gcc/4.9.2/bin/../lib/gcc/x86_64-unknown-linux-gnu/4.9.2/ -mtune=corei7 -march=x86-64 -g -O2
REM COMMAND_LINE
REM seed -1707279151 1737648338 -1426185080 946417525 -1821887477 1115875339 -792405647 -1098499417 1286403984 50174628 1579913381 132937109
REM
REM P 3|1.8|4|5|5|30:31:32(qc=5)
REM O 2|1.5|12|13|15|20:21(qc=5)
REM Li 1|1.3|8|9|10|10U:20(qc=5)
REM Fe 3|2.2|2.0|1.0|8|9|10|40:41:32(qc=5)
REM Fe d:4.0 
REM
CELL 1.54180    3.08621    7.05348    7.05348   96.57565   87.85251   87.85251
LATT -1
SFAC Li O  P  Fe 
Li     1  0.2820660000000  0.4613830000000 -0.0121140000000 1.0   0.01
Li     1  0.2820660000000 -0.0121140000000  0.4613830000000 1.0   0.01
O      2  0.1316600000000 -0.0459170000000  0.1681660000000 1.0  -0.03
O      2 -0.6553670000000 -0.3161410000000  0.3757550000000 1.0   0.13
O      2 -0.2117620000000 -0.3446060000000 -0.1091100000000 1.0   0.00
O      2 -0.2317170000000 -0.6067180000000  0.1705230000000 1.0   0.06
O      2  0.1316600000000  0.1681660000000 -0.0459170000000 1.0  -0.03
O      2 -0.6553670000000  0.3757550000000 -0.3161410000000 1.0   0.13
O      2 -0.2117620000000 -0.1091100000000 -0.3446060000000 1.0   0.00
O      2 -0.2317170000000  0.1705230000000 -0.6067180000000 1.0   0.06
P      3 -0.1804780000000 -0.3267900000000 -0.3267900000000 1.0   0.04
P      3 -0.0690430000000  0.1808790000000  0.1808790000000 1.0   0.01
Fe     4  0.3437940000000  0.5119210000000  0.5119210000000 1.0  -0.68
Fe     4  0.5803350000000 -0.0443320000000 -0.0443320000000 1.0  -3.70
END
