TITL 4LFP-201124-092754-0a7177 0.0031 145.881381 -6.07339975E+003 8.00000 8.09250 14 (Pc) n - 1
REM
REM Run started: Tue, 24 Nov 2020 10:32:03 +0000 in /lustre/scratch/uccabz1/launch_tmp/launcher_2020-11-24-09-27-46-250272
REM CASTEP 20.1 from code version af48c487+ pr-geom-scf-spinfix Tue Jun 2 15:39:59 2020 +0100
REM Functional Perdew Burke Ernzerhof Relativity Koelling-Harmon Dispersion off
REM Cut-off 300.0000 eV Grid scale 1.7500 Gmax 15.5288 1/A FBSC none
REM MP grid 4 3 3 Offset 0.000 0.000 0.000 No. kpts 12 Spacing 0.07
REM Total runtime: 4415.26 s
REM Overall efficiency: 93.7143 %
REM
REM 4LFP.cell (a815d5d25b9f25a0a111bfe3624e67be)
REM
REM compiler GCC version 4.9.2
REM options -cpp -iprefix /lustre/shared/ucl/apps/gcc/4.9.2/bin/../lib/gcc/x86_64-unknown-linux-gnu/4.9.2/ -mtune=corei7 -march=x86-64 -g -Og
REM COMMAND_LINE
REM seed -1546547027 -1307033046 -1546279419 -1222350594 149769355 878039864 -33253647 1862841558 373913276 884257262 1519632746 -2040082757
REM
REM P 3|1.8|4|5|5|30:31:32(qc=5)
REM O 2|1.5|12|13|15|20:21(qc=5)
REM Li 1|1.3|8|9|10|10U:20(qc=5)
REM Fe 3|2.2|2.0|1.0|8|9|10|40:41:32(qc=5)
REM Fe d:4.0 
REM
CELL 1.54180    5.01723    5.53827    6.17278   90.00000  121.73255   90.00000
LATT -1
SFAC Li O  P  Fe 
Li     1 -0.0099210000000  0.2837020000000 -0.2682160000000 1.0  -0.06
Li     1 -0.0099210000000 -0.2837020000000  0.2317840000000 1.0  -0.06
O      2 -0.2632610000000 -0.0368240000000  0.0386610000000 1.0   0.03
O      2 -0.6841870000000  0.1866050000000  0.0652930000000 1.0   0.05
O      2 -0.1375330000000  0.3889360000000  0.2079350000000 1.0   0.03
O      2 -0.5803230000000  0.3319630000000 -0.2505440000000 1.0   0.04
O      2 -0.2632610000000  0.0368240000000  0.5386610000000 1.0   0.03
O      2 -0.6841870000000 -0.1866050000000  0.5652930000000 1.0   0.05
O      2 -0.1375330000000 -0.3889360000000  0.7079350000000 1.0   0.03
O      2 -0.5803230000000 -0.3319630000000  0.2494560000000 1.0   0.04
P      3 -0.4030370000000  0.2150990000000  0.0228490000000 1.0   0.01
P      3 -0.4030370000000 -0.2150990000000  0.5228490000000 1.0   0.01
Fe     4  0.3228250000000  0.2639690000000  0.3897880000000 1.0   3.89
Fe     4  0.3228250000000 -0.2639690000000 -0.1102120000000 1.0   3.89
END
