TITL 4LFP-201124-092412-4490c0 0.0238 160.581716 -6.07366795E+003 8.00000 8.10544 14 (Pc) n - 1
REM
REM Run started: Tue, 24 Nov 2020 13:38:19 +0000 in /lustre/scratch/uccabz1/launch_tmp/launcher_2020-11-24-09-24-06-424824
REM CASTEP 20.1 from code version af48c487+ pr-geom-scf-spinfix Tue Jun 2 15:39:59 2020 +0100
REM Functional Perdew Burke Ernzerhof Relativity Koelling-Harmon Dispersion off
REM Cut-off 300.0000 eV Grid scale 1.7500 Gmax 15.5288 1/A FBSC none
REM MP grid 4 4 2 Offset 0.000 0.000 0.000 No. kpts 8 Spacing 0.07
REM Total runtime: 14969.5 s
REM Overall efficiency: 95.8 %
REM
REM 4LFP.cell (a815d5d25b9f25a0a111bfe3624e67be)
REM
REM compiler GCC version 4.9.2
REM options -cpp -iprefix /lustre/shared/ucl/apps/gcc/4.9.2/bin/../lib/gcc/x86_64-unknown-linux-gnu/4.9.2/ -mtune=corei7 -march=x86-64 -g -Og
REM COMMAND_LINE
REM seed -585179847 -2059398906 1158713961 1367883598 1334168373 1323675639 129129719 212685982 -1744134426 123787284 1655709548 -1702283776
REM
REM P 3|1.8|4|5|5|30:31:32(qc=5)
REM O 2|1.5|12|13|15|20:21(qc=5)
REM Li 1|1.3|8|9|10|10U:20(qc=5)
REM Fe 3|2.2|2.0|1.0|8|9|10|40:41:32(qc=5)
REM Fe d:4.0 
REM
CELL 1.54180    4.86367    5.21152    7.53130   90.00000   90.00000  122.73318
LATT -1
SFAC Li O  P  Fe 
Li     1  0.0870730000000 -0.2121470000000 -0.1109290000000 1.0  -0.03
Li     1  0.0870730000000  0.2878530000000  0.1109290000000 1.0  -0.03
O      2 -0.5306970000000 -0.7021590000000  0.2138280000000 1.0   0.04
O      2 -0.1607400000000 -0.1543470000000  0.0926460000000 1.0   0.01
O      2 -0.2911810000000 -0.2509070000000  0.4185660000000 1.0   0.06
O      2  0.0775540000000 -0.4082100000000  0.2699380000000 1.0   0.04
O      2 -0.5306970000000 -0.2021590000000 -0.2138280000000 1.0   0.04
O      2 -0.1607400000000  0.3456530000000 -0.0926460000000 1.0   0.01
O      2 -0.2911810000000  0.2490930000000 -0.4185660000000 1.0   0.06
O      2  0.0775540000000  0.0917900000000 -0.2699380000000 1.0   0.04
P      3 -0.2212420000000 -0.3753860000000  0.2435410000000 1.0   0.01
P      3 -0.2212420000000  0.1246140000000 -0.2435410000000 1.0   0.01
Fe     4  0.4985410000000 -0.0171530000000  0.3456730000000 1.0   3.87
Fe     4  0.4985410000000  0.4828470000000 -0.3456730000000 1.0   3.87
END
