TITL 4LFP_actual-201127-014521-a4a204 -0.0291 303.614773 -1.21488529E+004 16.0000 16.2423 28 (P21/c) n - 1
REM
REM Run started: Fri, 27 Nov 2020 02:27:14 +0000 in /lustre/scratch/uccabz1/launch_tmp/launcher_2020-11-27-01-45-11-629048
REM CASTEP 20.1 from code version af48c487+ pr-geom-scf-spinfix Tue Jun 2 15:39:59 2020 +0100
REM Functional Perdew Burke Ernzerhof Relativity Koelling-Harmon Dispersion off
REM Cut-off 300.0000 eV Grid scale 1.7500 Gmax 15.5288 1/A FBSC none
REM MP grid 3 2 3 Offset 0.000 0.000 0.000 No. kpts 5 Spacing 0.07
REM Total runtime: 3191.01 s
REM Overall efficiency: 72.5 %
REM
REM 4LFP_actual.cell (cb690b6ff984803026f07b083c6867a4)
REM
REM compiler GCC version 4.9.2
REM options -cpp -iprefix /lustre/shared/ucl/apps/gcc/4.9.2/bin/../lib/gcc/x86_64-unknown-linux-gnu/4.9.2/ -mtune=corei7 -march=x86-64 -g -Og
REM COMMAND_LINE
REM seed -1817194926 1160696963 -911923269 334614728 -1219357223 696127663 154810230 448303831 590546626 -1225513408 -1178422590 1821690936
REM
REM P 3|1.8|4|5|5|30:31:32(qc=5)
REM O 2|1.5|12|13|15|20:21(qc=5)
REM Li 1|1.3|8|9|10|10U:20(qc=5)
REM Fe 3|2.2|2.0|1.0|8|9|10|40:41:32(qc=5)
REM Fe d:4.0 
REM
CELL 1.54180    5.30654    8.08511    7.23918   90.00000  102.16529   90.00000
LATT -1
SFAC Li O  P  Fe 
Li     1 -0.2852500000000 -0.4164830000000 -0.3166750000000 1.0  -0.03
Li     1  0.2852500000000  0.0835170000000 -0.1833250000000 1.0  -0.03
Li     1  0.2852500000000  0.4164830000000  0.3166750000000 1.0  -0.03
Li     1 -0.2852500000000 -0.0835170000000  0.1833250000000 1.0  -0.03
O      2 -0.2065550000000 -0.2267030000000 -0.1117180000000 1.0   0.05
O      2 -0.2905760000000  0.0782000000000 -0.0562660000000 1.0   0.05
O      2 -0.0695230000000 -0.0059970000000 -0.3226730000000 1.0   0.04
O      2 -0.5507210000000 -0.0689970000000 -0.3313880000000 1.0   0.05
O      2  0.2065550000000  0.2732970000000 -0.3882820000000 1.0   0.05
O      2  0.2905760000000  0.5782000000000 -0.4437340000000 1.0   0.05
O      2  0.0695230000000  0.4940030000000 -0.1773270000000 1.0   0.04
O      2  0.5507210000000  0.4310030000000 -0.1686120000000 1.0   0.05
O      2  0.2065550000000  0.2267030000000  0.1117180000000 1.0   0.05
O      2  0.2905760000000 -0.0782000000000  0.0562660000000 1.0   0.05
O      2  0.0695230000000  0.0059970000000  0.3226730000000 1.0   0.04
O      2  0.5507210000000  0.0689970000000  0.3313880000000 1.0   0.05
O      2 -0.2065550000000 -0.2732970000000  0.3882820000000 1.0   0.05
O      2 -0.2905760000000 -0.5782000000000  0.4437340000000 1.0   0.05
O      2 -0.0695230000000 -0.4940030000000  0.1773270000000 1.0   0.04
O      2 -0.5507210000000 -0.4310030000000  0.1686120000000 1.0   0.05
P      3 -0.2774730000000 -0.0565180000000 -0.2086580000000 1.0   0.02
P      3  0.2774730000000  0.4434820000000 -0.2913420000000 1.0   0.02
P      3  0.2774730000000  0.0565180000000  0.2086580000000 1.0   0.02
P      3 -0.2774730000000 -0.4434820000000  0.2913420000000 1.0   0.02
Fe     4  0.1372250000000 -0.1884380000000  0.5340410000000 1.0   3.82
Fe     4 -0.1372250000000  0.3115620000000 -0.0340410000000 1.0   3.82
Fe     4 -0.1372250000000  0.1884380000000 -0.5340410000000 1.0   3.82
Fe     4  0.1372250000000 -0.3115620000000  0.0340410000000 1.0   3.82
END
