TITL 4LFP_actual-201201-153428-c5a0a6 -0.0558 340.041037 -1.21477299E+004 16.0000 16.3218 28 (Pc) n - 1
REM
REM Run started: Tue, 01 Dec 2020 22:41:15 +0000 in /lustre/scratch/uccabz1/launch_tmp/launcher_2020-12-01-15-34-21-502821
REM CASTEP 20.1 from code version af48c487+ pr-geom-scf-spinfix Tue Jun 2 15:39:59 2020 +0100
REM Functional Perdew Burke Ernzerhof Relativity Koelling-Harmon Dispersion off
REM Cut-off 300.0000 eV Grid scale 1.7500 Gmax 15.5288 1/A FBSC none
REM MP grid 3 3 2 Offset 0.000 0.000 0.000 No. kpts 6 Spacing 0.07
REM Total runtime: 28315.5 s
REM Overall efficiency: 97.0833 %
REM
REM 4LFP_actual.cell (cb690b6ff984803026f07b083c6867a4)
REM
REM compiler GCC version 4.9.2
REM options -cpp -iprefix /lustre/shared/ucl/apps/gcc/4.9.2/bin/../lib/gcc/x86_64-unknown-linux-gnu/4.9.2/ -mtune=corei7 -march=x86-64 -g -Og
REM COMMAND_LINE
REM seed -250732809 1787210243 422126849 1201269439 -241738091 464275337 -429824310 -1905021978 1113946051 665218423 -833469497 15691513
REM
REM P 3|1.8|4|5|5|30:31:32(qc=5)
REM O 2|1.5|12|13|15|20:21(qc=5)
REM Li 1|1.3|8|9|10|10U:20(qc=5)
REM Fe 3|2.2|2.0|1.0|8|9|10|40:41:32(qc=5)
REM Fe d:4.0 
REM
CELL 1.54180    6.15178    6.03635    9.69267   90.00000  109.13650   90.00000
LATT -1
SFAC Li O  P  Fe 
Li     1 -0.2458180000000  0.2988400000000  0.1911090000000 1.0  -0.02
Li     1  0.2541820000000 -0.2988400000000  0.1911090000000 1.0  -0.02
Li     1  0.2059600000000 -0.0073330000000 -0.3203910000000 1.0  -0.04
Li     1 -0.2940400000000  0.0073330000000 -0.3203910000000 1.0  -0.04
O      2 -0.3845930000000  0.4549440000000  0.0168440000000 1.0   0.04
O      2 -0.6874260000000  0.2278410000000 -0.1802360000000 1.0   0.04
O      2 -0.2761950000000  0.2411520000000 -0.1810050000000 1.0   0.04
O      2 -0.3635410000000  0.0488380000000  0.0303200000000 1.0   0.04
O      2  0.1154070000000 -0.4549440000000  0.0168440000000 1.0   0.04
O      2 -0.1874260000000 -0.2278410000000 -0.1802360000000 1.0   0.04
O      2  0.2238050000000 -0.2411520000000 -0.1810050000000 1.0   0.04
O      2  0.1364590000000 -0.0488380000000  0.0303200000000 1.0   0.04
O      2 -0.3860900000000  0.2617790000000 -0.6512450000000 1.0   0.04
O      2  0.0115860000000  0.2414900000000 -0.6428380000000 1.0   0.04
O      2 -0.0844700000000  0.4887360000000 -0.4522080000000 1.0   0.05
O      2 -0.0983720000000  0.0597580000000 -0.4390100000000 1.0   0.03
O      2  0.1139100000000 -0.2617790000000 -0.6512450000000 1.0   0.04
O      2  0.5115860000000 -0.2414900000000 -0.6428380000000 1.0   0.04
O      2  0.4155300000000 -0.4887360000000 -0.4522080000000 1.0   0.05
O      2  0.4016280000000 -0.0597580000000 -0.4390100000000 1.0   0.03
P      3 -0.4312430000000  0.2432130000000 -0.0824960000000 1.0   0.01
P      3  0.0687570000000 -0.2432130000000 -0.0824960000000 1.0   0.01
P      3 -0.1350930000000  0.2729940000000 -0.5376950000000 1.0   0.01
P      3  0.3649070000000 -0.2729940000000 -0.5376950000000 1.0   0.01
Fe     4 -0.4297290000000 -0.2469940000000 -0.0767150000000 1.0   3.86
Fe     4  0.0702710000000  0.2469940000000 -0.0767150000000 1.0   3.86
Fe     4  0.3467410000000  0.2270540000000  0.4164070000000 1.0   3.87
Fe     4 -0.1532590000000 -0.2270540000000  0.4164070000000 1.0   3.87
END
