TITL 4LFP-201124-125527-f0b94e 0.0063 154.679924 -6.07260384E+003 8.00000 8.13729 14 (Pma2) n - 1
REM
REM Run started: Tue, 24 Nov 2020 13:03:00 +0000 in /lustre/scratch/uccabz1/launch_tmp/launcher_2020-11-24-12-55-22-745646
REM CASTEP 20.1 from code version af48c487+ pr-geom-scf-spinfix Tue Jun 2 15:39:59 2020 +0100
REM Functional Perdew Burke Ernzerhof Relativity Koelling-Harmon Dispersion off
REM Cut-off 300.0000 eV Grid scale 1.7500 Gmax 15.5288 1/A FBSC none
REM MP grid 4 4 2 Offset 0.000 0.000 0.000 No. kpts 4 Spacing 0.07
REM Total runtime: 596.56 s
REM Overall efficiency: 66.4 %
REM
REM 4LFP.cell (a815d5d25b9f25a0a111bfe3624e67be)
REM
REM compiler GCC version 4.9.2
REM options -cpp -iprefix /lustre/shared/ucl/apps/gcc/4.9.2/bin/../lib/gcc/x86_64-unknown-linux-gnu/4.9.2/ -mtune=corei7 -march=x86-64 -g -Og
REM COMMAND_LINE
REM seed -1682736991 -374530215 -738207666 -1682895370 452262472 -1655296439 -582100669 1485193687 -1098932046 1752777000 2103825381 -1528626571
REM
REM P 3|1.8|4|5|5|30:31:32(qc=5)
REM O 2|1.5|12|13|15|20:21(qc=5)
REM Li 1|1.3|8|9|10|10U:20(qc=5)
REM Fe 3|2.2|2.0|1.0|8|9|10|40:41:32(qc=5)
REM Fe d:4.0 
REM
CELL 1.54180    4.04002    4.26471    8.97762   90.00000   90.00000   90.00000
LATT -1
SFAC Li O  P  Fe 
Li     1  0.2758010000000  0.0204110000000 -0.2500000000000 1.0  -0.06
Li     1  0.2758010000000 -0.0204110000000  0.2500000000000 1.0  -0.06
O      2 -0.4341590000000  0.2121780000000  0.6022160000000 1.0   0.05
O      2  0.0009080000000  0.2076400000000  0.3970730000000 1.0   0.06
O      2 -0.4341590000000 -0.2121780000000 -0.6022160000000 1.0   0.05
O      2  0.0009080000000 -0.2076400000000 -0.3970730000000 1.0   0.06
O      2 -0.4341590000000 -0.2121780000000  0.1022160000000 1.0   0.05
O      2  0.0009080000000 -0.2076400000000 -0.1029270000000 1.0   0.06
O      2 -0.4341590000000  0.2121780000000 -0.1022160000000 1.0   0.05
O      2  0.0009080000000  0.2076400000000  0.1029270000000 1.0   0.06
P      3 -0.2179220000000  0.0000000000000  0.0000000000000 1.0   0.02
P      3 -0.2179220000000  0.0000000000000 -0.5000000000000 1.0   0.02
Fe     4 -0.2246920000000 -0.4903360000000 -0.2500000000000 1.0   3.82
Fe     4 -0.2246920000000  0.4903360000000  0.2500000000000 1.0   3.82
END
