TITL 4LFP_actual-201126-170120-3ac0b2 0.0005 314.199610 -1.21398590E+004 17.9919 18.1951 28 (Cm) n - 1
REM
REM Run started: Thu, 26 Nov 2020 20:05:59 +0000 in /scratch/scratch/uccabz1/launch_tmp/launcher_2020-11-26-17-01-16-286247
REM CASTEP 19.11| from code version Version unavailable
REM Functional Perdew Burke Ernzerhof Relativity Koelling-Harmon Dispersion off
REM Cut-off 300.0000 eV Grid scale 1.7500 Gmax 15.5288 1/A FBSC none
REM MP grid 3 2 2 Offset 0.000 0.000 0.000 No. kpts 5 Spacing 0.07
REM Total runtime: 11914.6 s
REM Overall efficiency: 61.125 %
REM
REM 4LFP_actual.cell (cb690b6ff984803026f07b083c6867a4)
REM
REM compiler GCC version 4.9.2
REM options -cpp -iprefix /scratch/UCL/applications/gcc/4.9.2/bin/../lib/gcc/x86_64-unknown-linux-gnu/4.9.2/ -mtune=corei7 -march=x86-64 -g -O2
REM COMMAND_LINE
REM seed 920255964 1578343267 -1837674069 -1334219575 1159649655 -1974410780 535966822 1820369836 1048896006 1272736377 -1099504813 555513544
REM
REM P 3|1.8|4|5|5|30:31:32(qc=5)
REM O 2|1.5|12|13|15|20:21(qc=5)
REM Li 1|1.3|8|9|10|10U:20(qc=5)
REM Fe 3|2.2|2.0|1.0|8|9|10|40:41:32(qc=5)
REM Fe d:4.0 
REM
CELL 1.54180    5.43925    7.92143    7.92143   70.24797   80.20407   80.20407
LATT -1
SFAC Li O  P  Fe 
Li     1  0.1566210000000 -0.2636340000000  0.1097140000000 1.0  -0.05
Li     1  0.1566210000000  0.1097140000000 -0.2636340000000 1.0  -0.05
Li     1 -0.3615530000000  0.1891450000000  0.1891450000000 1.0  -0.03
Li     1  0.1928030000000 -0.2861410000000 -0.2861410000000 1.0  -0.02
O      2  0.4301740000000  0.5045790000000 -0.2227890000000 1.0   0.16
O      2  0.2687510000000  0.3744990000000  0.1015670000000 1.0   0.05
O      2  0.1165790000000  0.2599910000000 -0.1196670000000 1.0   0.11
O      2  0.5870650000000  0.1983330000000 -0.0708010000000 1.0   0.12
O      2  0.4301740000000 -0.2227890000000  0.5045790000000 1.0   0.16
O      2  0.2687510000000  0.1015670000000  0.3744990000000 1.0   0.05
O      2  0.1165790000000 -0.1196670000000  0.2599910000000 1.0   0.11
O      2  0.5870650000000 -0.0708010000000  0.1983330000000 1.0   0.12
O      2 -0.1142630000000  0.2634420000000 -0.4044400000000 1.0   0.07
O      2 -0.5747950000000  0.2436890000000 -0.4177760000000 1.0  -0.00
O      2 -0.2283390000000  0.0436250000000 -0.5478140000000 1.0   0.08
O      2 -0.1142630000000 -0.4044400000000  0.2634420000000 1.0   0.07
O      2 -0.5747950000000 -0.4177760000000  0.2436890000000 1.0  -0.00
O      2 -0.2283390000000 -0.5478140000000  0.0436250000000 1.0   0.08
O      2 -0.0636350000000 -0.3694820000000 -0.3694820000000 1.0   0.58
O      2  0.0624040000000 -0.1308160000000 -0.1308160000000 1.0   0.26
P      3  0.3338880000000  0.3344010000000 -0.0748990000000 1.0   0.01
P      3  0.3338880000000 -0.0748990000000  0.3344010000000 1.0   0.01
P      3 -0.3130890000000  0.1353070000000 -0.3996100000000 1.0   0.04
P      3 -0.3130890000000 -0.3996100000000  0.1353070000000 1.0   0.04
Fe     4 -0.1968050000000  0.4231450000000 -0.2127840000000 1.0   4.20
Fe     4 -0.1968050000000 -0.2127840000000  0.4231450000000 1.0   4.20
Fe     4  0.1883680000000  0.3642560000000  0.3642560000000 1.0   3.90
Fe     4 -0.2698460000000 -0.0704630000000 -0.0704630000000 1.0   3.73
END
