TITL 4LFP-201124-083035-76e04a -0.0311 147.089030 -6.07285223E+003 8.00000 8.25722 14 (I41) n - 1
REM
REM Run started: Tue, 24 Nov 2020 12:35:23 +0000 in /lustre/scratch/uccabz1/launch_tmp/launcher_2020-11-24-08-25-33-340489
REM CASTEP 20.1 from code version af48c487+ pr-geom-scf-spinfix Tue Jun 2 15:39:59 2020 +0100
REM Functional Perdew Burke Ernzerhof Relativity Koelling-Harmon Dispersion off
REM Cut-off 300.0000 eV Grid scale 1.7500 Gmax 15.5288 1/A FBSC none
REM MP grid 4 4 3 Offset 0.000 0.000 0.000 No. kpts 22 Spacing 0.07
REM Total runtime: 15920.5 s
REM Overall efficiency: 72.8333 %
REM
REM 4LFP.cell (a815d5d25b9f25a0a111bfe3624e67be)
REM
REM compiler GCC version 4.9.2
REM options -cpp -iprefix /lustre/shared/ucl/apps/gcc/4.9.2/bin/../lib/gcc/x86_64-unknown-linux-gnu/4.9.2/ -mtune=corei7 -march=x86-64 -g -Og
REM COMMAND_LINE
REM seed -684924518 -470060832 -422346491 156730055 -1195277081 -942374397 -1147268104 -213796023 -2050071301 439332701 -2001139093 465525214
REM
REM P 3|1.8|4|5|5|30:31:32(qc=5)
REM O 2|1.5|12|13|15|20:21(qc=5)
REM Li 1|1.3|8|9|10|10U:20(qc=5)
REM Fe 3|2.2|2.0|1.0|8|9|10|40:41:32(qc=5)
REM Fe d:4.0 
REM
CELL 1.54180    4.59642    4.59642    7.68339  107.40442  107.40442   90.00000
LATT -1
SFAC Li O  P  Fe 
Li     1  0.2708160000000  0.2708160000000 -0.4583680000000 1.0  -0.04
Li     1 -0.4791840000000  0.0208160000000  0.0416320000000 1.0  -0.04
O      2 -0.1343280000000 -0.0227910000000  0.2711500000000 1.0   0.03
O      2  0.5863660000000  0.0276170000000  0.5153050000000 1.0   0.04
O      2  0.4054770000000  0.2939400000000  0.2711500000000 1.0   0.03
O      2 -0.0710610000000  0.4876880000000  0.5153050000000 1.0   0.04
O      2 -0.4560600000000 -0.3843280000000 -0.2288500000000 1.0   0.03
O      2 -0.2623120000000  0.3363660000000  0.0153050000000 1.0   0.04
O      2  0.2272090000000  0.1554770000000 -0.2288500000000 1.0   0.03
O      2  0.2776170000000 -0.3210610000000  0.0153050000000 1.0   0.04
P      3 -0.3015220000000  0.1984780000000  0.3969570000000 1.0   0.02
P      3  0.4484780000000  0.4484780000000 -0.1030430000000 1.0   0.02
Fe     4 -0.1318770000000 -0.1318770000000 -0.2637550000000 1.0   3.88
Fe     4  0.1181230000000 -0.3818770000000  0.2362450000000 1.0   3.88
END
