TITL 4LFP_actual-201126-230612-190376 -0.0119 322.211823 -1.21465995E+004 16.0000 16.2784 28 (P21) n - 1
REM
REM Run started: Fri, 27 Nov 2020 04:56:01 +0000 in /scratch/scratch/uccabz1/launch_tmp/launcher_2020-11-26-23-05-30-237686
REM CASTEP 19.11| from code version Version unavailable
REM Functional Perdew Burke Ernzerhof Relativity Koelling-Harmon Dispersion off
REM Cut-off 300.0000 eV Grid scale 1.7500 Gmax 15.5288 1/A FBSC none
REM MP grid 4 2 2 Offset 0.000 0.000 0.000 No. kpts 4 Spacing 0.07
REM Total runtime: 22269.7 s
REM Overall efficiency: 82.4167 %
REM
REM 4LFP_actual.cell (cb690b6ff984803026f07b083c6867a4)
REM
REM compiler GCC version 4.9.2
REM options -cpp -iprefix /scratch/UCL/applications/gcc/4.9.2/bin/../lib/gcc/x86_64-unknown-linux-gnu/4.9.2/ -mtune=corei7 -march=x86-64 -g -O2
REM COMMAND_LINE
REM seed -1215352585 -862695676 1971059686 259809400 1204599005 622582979 -848510259 -124474041 604442943 -1683308685 121204911 -1705577392
REM
REM P 3|1.8|4|5|5|30:31:32(qc=5)
REM O 2|1.5|12|13|15|20:21(qc=5)
REM Li 1|1.3|8|9|10|10U:20(qc=5)
REM Fe 3|2.2|2.0|1.0|8|9|10|40:41:32(qc=5)
REM Fe d:4.0 
REM
CELL 1.54180    4.51764    7.96728    8.95263   90.00000   90.67780   90.00000
LATT -1
SFAC Li O  P  Fe 
Li     1  0.1846070000000 -0.2344410000000  0.2214930000000 1.0  -0.03
Li     1 -0.1846070000000  0.2655590000000 -0.2214930000000 1.0  -0.03
Li     1  0.2752280000000  0.0161090000000 -0.2850200000000 1.0  -0.03
Li     1 -0.2752280000000 -0.4838910000000  0.2850200000000 1.0  -0.03
O      2  0.1047410000000  0.5186250000000 -0.0309530000000 1.0   0.05
O      2  0.2121380000000  0.2275480000000 -0.1488120000000 1.0   0.02
O      2  0.5676270000000  0.4616920000000 -0.1811860000000 1.0   0.06
O      2  0.4889970000000  0.3323690000000  0.0822340000000 1.0   0.04
O      2 -0.1047410000000  0.0186250000000  0.0309530000000 1.0   0.05
O      2 -0.2121380000000 -0.2724520000000  0.1488120000000 1.0   0.02
O      2 -0.5676270000000 -0.0383080000000  0.1811860000000 1.0   0.06
O      2 -0.4889970000000 -0.1676310000000 -0.0822340000000 1.0   0.04
O      2 -0.1700670000000  0.3377100000000  0.5842140000000 1.0   0.03
O      2 -0.1130510000000  0.2058180000000  0.3283010000000 1.0   0.04
O      2  0.2348700000000  0.4378490000000  0.4057500000000 1.0   0.03
O      2  0.2737560000000  0.1547200000000  0.5384630000000 1.0   0.04
O      2  0.1700670000000 -0.1622900000000 -0.5842140000000 1.0   0.03
O      2  0.1130510000000 -0.2941820000000 -0.3283010000000 1.0   0.04
O      2 -0.2348700000000 -0.0621510000000 -0.4057500000000 1.0   0.03
O      2 -0.2737560000000 -0.3452800000000 -0.5384630000000 1.0   0.04
P      3  0.3360940000000  0.3849850000000 -0.0678980000000 1.0   0.01
P      3 -0.3360940000000 -0.1150150000000  0.0678980000000 1.0   0.01
P      3  0.0579840000000  0.2842920000000  0.4673040000000 1.0   0.01
P      3 -0.0579840000000 -0.2157080000000 -0.4673040000000 1.0   0.01
Fe     4  0.1609090000000  0.1688120000000  0.1436150000000 1.0   3.87
Fe     4 -0.1609090000000 -0.3311880000000 -0.1436150000000 1.0   3.87
Fe     4  0.4608880000000  0.5200350000000 -0.4011380000000 1.0   3.88
Fe     4 -0.4608880000000  0.0200350000000  0.4011380000000 1.0   3.88
END
