TITL 4LFP-201124-103815-b66525 0.0134 157.508635 -6.07122197E+003 8.00000 8.18726 14 (Cm) n - 1
REM
REM Run started: Tue, 24 Nov 2020 11:14:45 +0000 in /lustre/scratch/uccabz1/launch_tmp/launcher_2020-11-24-10-38-08-331565
REM CASTEP 20.1 from code version af48c487+ pr-geom-scf-spinfix Tue Jun 2 15:39:59 2020 +0100
REM Functional Perdew Burke Ernzerhof Relativity Koelling-Harmon Dispersion off
REM Cut-off 300.0000 eV Grid scale 1.7500 Gmax 15.5288 1/A FBSC none
REM MP grid 4 3 3 Offset 0.000 0.000 0.000 No. kpts 18 Spacing 0.07
REM Total runtime: 2335.02 s
REM Overall efficiency: 85.1429 %
REM
REM 4LFP.cell (a815d5d25b9f25a0a111bfe3624e67be)
REM
REM compiler GCC version 4.9.2
REM options -cpp -iprefix /lustre/shared/ucl/apps/gcc/4.9.2/bin/../lib/gcc/x86_64-unknown-linux-gnu/4.9.2/ -mtune=corei7 -march=x86-64 -g -Og
REM COMMAND_LINE
REM seed 1312848463 -449893916 105920724 -1209486743 -1439490720 -618617878 303136181 -215443182 -1864568191 -1672997992 118885073 -489917109
REM
REM P 3|1.8|4|5|5|30:31:32(qc=5)
REM O 2|1.5|12|13|15|20:21(qc=5)
REM Li 1|1.3|8|9|10|10U:20(qc=5)
REM Fe 3|2.2|2.0|1.0|8|9|10|40:41:32(qc=5)
REM Fe d:4.0 
REM
CELL 1.54180    5.35177    6.18035    6.27149  119.42644  115.15233   90.19170
LATT -1
SFAC Li O  P  Fe 
Li     1 -0.1984050000000 -0.3801120000000  0.0000000000000 1.0  -0.04
Li     1  0.1094150000000  0.0900540000000  0.0000000000000 1.0  -0.04
O      2 -0.3130960000000 -0.2937800000000 -0.7045300000000 1.0   0.04
O      2 -0.1261630000000 -0.3471940000000 -0.2976280000000 1.0   0.05
O      2  0.0357180000000 -0.5557240000000 -0.7003390000000 1.0   0.05
O      2  0.2267860000000 -0.0927590000000 -0.3001900000000 1.0   0.04
O      2  0.3914340000000  0.4107500000000  0.7045300000000 1.0   0.04
O      2  0.1714660000000 -0.0495660000000  0.2976280000000 1.0   0.05
O      2  0.7360570000000  0.1446150000000  0.7003390000000 1.0   0.05
O      2  0.5269760000000  0.2074310000000  0.3001900000000 1.0   0.04
P      3 -0.0450370000000 -0.3272020000000 -0.5025240000000 1.0  -0.00
P      3  0.4574870000000  0.1753220000000  0.5025240000000 1.0  -0.00
Fe     4 -0.0440450000000  0.1887890000000  0.5008060000000 1.0   3.86
Fe     4 -0.5448520000000 -0.3120170000000 -0.5008060000000 1.0   3.86
END
