TITL 4LFP_actual-201127-020322-a9b6ce -0.0193 352.413406 -1.21375509E+004 15.9902 16.4254 28 (Ibca) n - 1
REM
REM Run started: Fri, 27 Nov 2020 07:16:49 +0000 in /lustre/scratch/uccabz1/launch_tmp/launcher_2020-11-27-02-03-20-032247
REM CASTEP 20.1 from code version af48c487+ pr-geom-scf-spinfix Tue Jun 2 15:39:59 2020 +0100
REM Functional Perdew Burke Ernzerhof Relativity Koelling-Harmon Dispersion off
REM Cut-off 300.0000 eV Grid scale 1.7500 Gmax 15.5288 1/A FBSC none
REM MP grid 3 3 3 Offset 0.000 0.000 0.000 No. kpts 8 Spacing 0.07
REM Total runtime: 21413 s
REM Overall efficiency: 97.375 %
REM
REM 4LFP_actual.cell (cb690b6ff984803026f07b083c6867a4)
REM
REM compiler GCC version 4.9.2
REM options -cpp -iprefix /lustre/shared/ucl/apps/gcc/4.9.2/bin/../lib/gcc/x86_64-unknown-linux-gnu/4.9.2/ -mtune=corei7 -march=x86-64 -g -Og
REM COMMAND_LINE
REM seed 836988894 -31862882 384380791 526218043 -1647850001 241762534 1328952979 -243290892 -2058469736 -1500205798 1415285828 1103338302
REM
REM P 3|1.8|4|5|5|30:31:32(qc=5)
REM O 2|1.5|12|13|15|20:21(qc=5)
REM Li 1|1.3|8|9|10|10U:20(qc=5)
REM Fe 3|2.2|2.0|1.0|8|9|10|40:41:32(qc=5)
REM Fe d:4.0 
REM
CELL 1.54180    7.92261    7.92261    7.92261   99.70929  127.88871  102.54587
LATT -1
SFAC Li O  P  Fe 
Li     1  0.0000000000000 -0.1078370000000 -0.1078370000000 1.0  -0.05
Li     1  0.0000000000000  0.3921630000000  0.3921630000000 1.0  -0.05
Li     1  0.5000000000000 -0.1227120000000  0.3772880000000 1.0  -0.05
Li     1  0.5000000000000  0.3772880000000 -0.1227120000000 1.0  -0.05
O      2  0.4540480000000  0.3086370000000  0.0950960000000 1.0   0.01
O      2  0.3537120000000 -0.0122570000000  0.1294570000000 1.0   0.01
O      2  0.7085920000000  0.1227240000000  0.1635800000000 1.0   0.01
O      2 -0.4540480000000 -0.3589520000000 -0.1454110000000 1.0   0.01
O      2 -0.3537120000000 -0.2242550000000 -0.3659690000000 1.0   0.01
O      2 -0.7085920000000 -0.5450120000000 -0.5858670000000 1.0   0.01
O      2  0.2135410000000 -0.1913630000000  0.3545890000000 1.0   0.01
O      2 -0.1417140000000 -0.5122570000000  0.1340310000000 1.0   0.01
O      2 -0.0408550000000 -0.3772760000000 -0.0858670000000 1.0   0.01
O      2 -0.2135410000000  0.1410480000000 -0.4049040000000 1.0   0.01
O      2  0.1417140000000  0.2757450000000 -0.3705430000000 1.0   0.01
O      2  0.0408550000000 -0.0450120000000 -0.3364200000000 1.0   0.01
O      2 -0.5000000000000  0.1967520000000 -0.3032480000000 1.0   0.13
O      2 -0.5000000000000 -0.3032480000000  0.1967520000000 1.0   0.13
O      2  0.0000000000000  0.0705540000000  0.0705540000000 1.0   0.13
O      2  0.0000000000000 -0.4294460000000 -0.4294460000000 1.0   0.13
P      3  0.5046420000000  0.1390740000000  0.1290010000000 1.0   0.02
P      3 -0.5046420000000 -0.3756400000000 -0.3655680000000 1.0   0.02
P      3  0.0100730000000 -0.3609260000000  0.1344320000000 1.0   0.02
P      3 -0.0100730000000  0.1243600000000 -0.3709990000000 1.0   0.02
Fe     4 -0.2515120000000  0.1321360000000 -0.1164770000000 1.0   3.87
Fe     4  0.2515120000000  0.1350340000000  0.3836480000000 1.0   3.87
Fe     4  0.2486130000000 -0.3678640000000 -0.1163520000000 1.0   3.87
Fe     4 -0.2486130000000 -0.3649660000000  0.3835230000000 1.0   3.87
END
