TITL 4LFP-201124-144433-f978f0 -0.0332 157.509649 -6.06662045E+003 8.00000 8.13344 14 (P2/c) n - 1
REM
REM Run started: Tue, 24 Nov 2020 15:09:48 +0000 in /scratch/scratch/uccabz1/launch_tmp/launcher_2020-11-24-14-44-30-839758
REM CASTEP 19.11| from code version Version unavailable
REM Functional Perdew Burke Ernzerhof Relativity Koelling-Harmon Dispersion off
REM Cut-off 300.0000 eV Grid scale 1.7500 Gmax 15.5288 1/A FBSC none
REM MP grid 3 4 3 Offset 0.000 0.000 0.000 No. kpts 12 Spacing 0.07
REM Total runtime: 1707.2 s
REM Overall efficiency: 73.75 %
REM
REM 4LFP.cell (a815d5d25b9f25a0a111bfe3624e67be)
REM
REM compiler GCC version 4.9.2
REM options -cpp -iprefix /scratch/UCL/applications/gcc/4.9.2/bin/../lib/gcc/x86_64-unknown-linux-gnu/4.9.2/ -mtune=corei7 -march=x86-64 -g -O2
REM COMMAND_LINE
REM seed -1530309934 -395420093 -1769585799 343406518 718538604 -732619681 -1563858476 1398050136 797307158 67029476 -425311465 -968141531
REM
REM P 3|1.8|4|5|5|30:31:32(qc=5)
REM O 2|1.5|12|13|15|20:21(qc=5)
REM Li 1|1.3|8|9|10|10U:20(qc=5)
REM Fe 3|2.2|2.0|1.0|8|9|10|40:41:32(qc=5)
REM Fe d:4.0 
REM
CELL 1.54180    5.31445    5.36187    6.32948  119.15521   90.00000   90.00000
LATT -1
SFAC Li O  P  Fe 
Li     1 -0.1191150000000  0.2500000000000  0.2500000000000 1.0  -0.02
Li     1  0.1191150000000 -0.2500000000000 -0.2500000000000 1.0  -0.02
O      2 -0.2754140000000  0.1357170000000  0.4740340000000 1.0   0.07
O      2 -0.1389720000000 -0.2237460000000  0.0259620000000 1.0   0.04
O      2 -0.2754140000000  0.3642830000000  0.0259660000000 1.0   0.07
O      2 -0.1389720000000  0.7237460000000  0.4740380000000 1.0   0.04
O      2  0.2754140000000 -0.1357170000000 -0.4740340000000 1.0   0.07
O      2  0.1389720000000  0.2237460000000 -0.0259620000000 1.0   0.04
O      2  0.2754140000000 -0.3642830000000 -0.0259660000000 1.0   0.07
O      2  0.1389720000000 -0.7237460000000 -0.4740380000000 1.0   0.04
P      3  0.0000000000000 -0.5000000000000  0.0000000000000 1.0   0.01
P      3  0.0000000000000  0.0000000000000 -0.5000000000000 1.0   0.01
Fe     4  0.4761420000000  0.2500000000000 -0.2500000000000 1.0   3.79
Fe     4 -0.4761420000000 -0.2500000000000  0.2500000000000 1.0   3.79
END
