TITL 4LFP-201124-094457-28627f -0.0465 144.581313 -6.07392538E+003 8.00000 8.18091 14 (Cc) n - 1
REM
REM Run started: Tue, 24 Nov 2020 11:43:43 +0000 in /scratch/scratch/uccabz1/launch_tmp/launcher_2020-11-24-10-58-44-680387
REM CASTEP 19.11| from code version Version unavailable
REM Functional Perdew Burke Ernzerhof Relativity Koelling-Harmon Dispersion off
REM Cut-off 300.0000 eV Grid scale 1.7500 Gmax 15.5288 1/A FBSC none
REM MP grid 4 4 3 Offset 0.000 0.000 0.000 No. kpts 24 Spacing 0.07
REM Total runtime: 6769.44 s
REM Overall efficiency: 95.4444 %
REM
REM
REM
REM compiler GCC version 4.9.2
REM options -cpp -iprefix /scratch/UCL/applications/gcc/4.9.2/bin/../lib/gcc/x86_64-unknown-linux-gnu/4.9.2/ -mtune=corei7 -march=x86-64 -g -O2
REM COMMAND_LINE
REM seed 141047938 -245698965 477345821 -690795410 1213665914 -846691707 1358556337 -583725600 217198121 -305604219 -1468265608 -2088598801
REM
REM P 3|1.8|4|5|5|30:31:32(qc=5)
REM O 2|1.5|12|13|15|20:21(qc=5)
REM Li 1|1.3|8|9|10|10U:20(qc=5)
REM Fe 3|2.2|2.0|1.0|8|9|10|40:41:32(qc=5)
REM Fe d:4.0 
REM
CELL 1.54180    5.71572    5.40596    6.20951   75.41881   62.59741   58.08571
LATT -1
SFAC Li O  P  Fe 
Li     1 -0.4022770000000  0.3459090000000 -0.2963020000000 1.0  -0.04
Li     1 -0.1473290000000 -0.1540910000000  0.2036980000000 1.0  -0.04
O      2  0.1832800000000  0.0305320000000  0.0503310000000 1.0   0.05
O      2  0.2878300000000  0.4466610000000  0.0466130000000 1.0   0.02
O      2 -0.1852600000000  0.4469340000000  0.3579530000000 1.0   0.02
O      2  0.3316210000000  0.0282650000000  0.3584500000000 1.0   0.05
O      2  0.2358580000000 -0.4694680000000 -0.4496690000000 1.0   0.05
O      2 -0.2811020000000 -0.0533390000000 -0.4533870000000 1.0   0.02
O      2 -0.1196260000000 -0.0530660000000 -0.1420470000000 1.0   0.02
O      2 -0.2183360000000 -0.4717350000000 -0.1415500000000 1.0   0.05
P      3  0.1502180000000  0.2461910000000  0.2032340000000 1.0   0.01
P      3 -0.0996430000000 -0.2538090000000 -0.2967660000000 1.0   0.01
Fe     4  0.2300860000000  0.0916000000000 -0.2993160000000 1.0   3.90
Fe     4 -0.5223690000000  0.5916000000000  0.2006840000000 1.0   3.90
END
