TITL 4LFP-201124-063156-122066 0.0295 144.904142 -6.06811009E+003 10.0000 10.0419 14 (Cm) n - 1
REM
REM Run started: Tue, 24 Nov 2020 08:48:16 +0000 in /scratch/scratch/uccabz1/launch_tmp/launcher_2020-11-24-06-26-54-173006
REM CASTEP 19.11| from code version Version unavailable
REM Functional Perdew Burke Ernzerhof Relativity Koelling-Harmon Dispersion off
REM Cut-off 300.0000 eV Grid scale 1.7500 Gmax 15.5288 1/A FBSC none
REM MP grid 4 3 3 Offset 0.000 0.000 0.000 No. kpts 12 Spacing 0.07
REM Total runtime: 8293.73 s
REM Overall efficiency: 94.3 %
REM
REM 4LFP.cell (a815d5d25b9f25a0a111bfe3624e67be)
REM
REM compiler GCC version 4.9.2
REM options -cpp -iprefix /scratch/UCL/applications/gcc/4.9.2/bin/../lib/gcc/x86_64-unknown-linux-gnu/4.9.2/ -mtune=corei7 -march=x86-64 -g -O2
REM COMMAND_LINE
REM seed -1458589012 -597339204 -1474389166 885028656 -147857784 -106981687 1579796986 1935979662 1499239437 1751060278 997989034 1613870946
REM
REM P 3|1.8|4|5|5|30:31:32(qc=5)
REM O 2|1.5|12|13|15|20:21(qc=5)
REM Li 1|1.3|8|9|10|10U:20(qc=5)
REM Fe 3|2.2|2.0|1.0|8|9|10|40:41:32(qc=5)
REM Fe d:4.0 
REM
CELL 1.54180    5.38451    6.06137    6.06137   60.13488   62.40030   62.40030
LATT -1
SFAC Li O  P  Fe 
Li     1 -0.3055070000000 -0.1111470000000  0.4459720000000 1.0  -0.02
Li     1 -0.3055070000000  0.4459720000000 -0.1111470000000 1.0  -0.02
O      2  0.2083260000000 -0.1149430000000  0.3493010000000 1.0   0.04
O      2  0.2726560000000 -0.3863180000000  0.0824040000000 1.0   0.11
O      2  0.7098420000000 -0.3877920000000  0.1081450000000 1.0   0.12
O      2  0.2083260000000  0.3493010000000 -0.1149430000000 1.0   0.04
O      2  0.2726560000000  0.0824040000000 -0.3863180000000 1.0   0.11
O      2  0.7098420000000  0.1081450000000 -0.3877920000000 1.0   0.12
O      2 -0.2649440000000  0.0980810000000  0.0980810000000 1.0   0.75
O      2 -0.1511540000000 -0.4721810000000 -0.4721810000000 1.0   0.55
P      3  0.3733900000000 -0.3587020000000  0.2732810000000 1.0   0.01
P      3  0.3733900000000  0.2732810000000 -0.3587020000000 1.0   0.01
Fe     4  0.0254620000000  0.3222080000000  0.3222080000000 1.0   4.14
Fe     4 -0.0619360000000 -0.1006330000000 -0.1006330000000 1.0   4.03
END
