TITL 2LFP-201123-235523-a0bbb7 0.026 185.612 -94.8393 0.00 0.00 14 (C2) n - 1
REM ALGO Normal
REM EDIFF 1.4e-05
REM EDIFFG -0.03
REM ENCUT 520
REM ENMAX 520.0
REM GGA Pe
REM IBRION -1
REM ICHARG 0
REM ISIF 3
REM ISMEAR 0
REM ISPIN 2
REM ISTART 1
REM KPOINT_BSE -1 0 0 0
REM LAECHG True
REM LASPH True
REM LCHARG True
REM LDAU True
REM LDAUJ [0.0, 0.0, 0.0, 0.0]
REM LDAUL [0, 2, 0, 0]
REM LDAUPRINT 1
REM LDAUTYPE 2
REM LDAUU [0.0, 4.0, 0.0, 0.0]
REM LMAXMIX 4
REM LORBIT 11
REM LREAL False
REM LVHAR True
REM LWAVE False
REM MAGMOM [0.001, 0.001, 3.695, 3.696, 0.008, 0.008, 0.032, 0.032, 0.033, 0.033, 0.032, 0.032, 0.033, 0.032]
REM NELM 200
REM NELMIN 6
REM NSW 0
REM PREC Accurate
REM SIGMA 0.05
REM @module pymatgen.io.vasp.inputs
REM @class Incar
REM kpoint grid [[7, 4, 4]]
REM potcar symbols ['Li_sv', 'Fe_pv', 'P', 'O']
REM potcar functional PBE
CELL 1.0 4.208693     6.966545     6.966544     90.242970    107.129402   107.129402  
LATT -1
SFAC Li Fe P O
Li   1       0.2546240000000      0.8746640000000      0.6347320000000 1.0
Li   1       0.7453760000000      0.3652680000000      0.1253360000000 1.0
Fe   2       0.5000000000000      0.3758820000000      0.6241180000000 1.0
Fe   2       0.0000000000000      0.8685680000000      0.1314320000000 1.0
P    3       0.7502980000000      0.1001050000000      0.4012630000000 1.0
P    3       0.2497020000000      0.5987370000000      0.8998950000000 1.0
O    4       0.6211050000000      0.1084000000000      0.5874560000000 1.0
O    4       0.8827850000000      0.9145760000000      0.3973740000000 1.0
O    4       0.4560460000000      0.0917490000000      0.1998050000000 1.0
O    4       0.0409770000000      0.3015670000000      0.4040420000000 1.0
O    4       0.3788950000000      0.4125440000000      0.8916000000000 1.0
O    4       0.1172150000000      0.6026260000000      0.0854240000000 1.0
O    4       0.5439540000000      0.8001950000000      0.9082510000000 1.0
O    4       0.9590230000000      0.5959580000000      0.6984330000000 1.0
END
