TITL 2LFP-201124-025357-c6362e -0.002 189.044 -93.9691 0.00 0.00 14 (Pm) n - 1
REM ALGO Normal
REM EDIFF 1.4e-05
REM EDIFFG -0.03
REM ENCUT 520
REM ENMAX 520.0
REM GGA Pe
REM IBRION -1
REM ICHARG 0
REM ISIF 3
REM ISMEAR 0
REM ISPIN 2
REM ISTART 1
REM KPOINT_BSE -1 0 0 0
REM LAECHG True
REM LASPH True
REM LCHARG True
REM LDAU True
REM LDAUJ [0.0, 0.0, 0.0, 0.0]
REM LDAUL [0, 2, 0, 0]
REM LDAUPRINT 1
REM LDAUTYPE 2
REM LDAUU [0.0, 4.0, 0.0, 0.0]
REM LMAXMIX 4
REM LORBIT 11
REM LREAL False
REM LVHAR True
REM LWAVE False
REM MAGMOM [0.002, 0.001, 3.678, 3.678, 0.008, 0.008, 0.024, 0.02, 0.021, 0.024, 0.02, 0.021, 0.006, 0.142]
REM NELM 200
REM NELMIN 6
REM NSW 0
REM PREC Accurate
REM SIGMA 0.05
REM @module pymatgen.io.vasp.inputs
REM @class Incar
REM kpoint grid [[6, 6, 3]]
REM potcar symbols ['Li_sv', 'Fe_pv', 'P', 'O']
REM potcar functional PBE
CELL 1.0 5.156825     5.057310     8.737380     90.000000    90.000000    123.940178  
LATT -1
SFAC Li Fe P O
Li   1       0.9151230000000      0.4876210000000      0.0000000000000 1.0
Li   1       0.5264300000000      0.3447930000000      0.5000000000000 1.0
Fe   2       0.9315870000000      0.9632690000000      0.1995570000000 1.0
Fe   2       0.9315870000000      0.9632690000000      0.8004430000000 1.0
P    3       0.2416080000000      0.6558690000000      0.3352450000000 1.0
P    3       0.2416080000000      0.6558690000000      0.6647550000000 1.0
O    4       0.5476120000000      0.6758820000000      0.3423370000000 1.0
O    4       0.2795750000000      0.9791280000000      0.3280010000000 1.0
O    4       0.0144200000000      0.4215700000000      0.2132430000000 1.0
O    4       0.5476120000000      0.6758820000000      0.6576630000000 1.0
O    4       0.2795750000000      0.9791280000000      0.6719990000000 1.0
O    4       0.0144200000000      0.4215700000000      0.7867570000000 1.0
O    4       0.0615260000000      0.4900180000000      0.5000000000000 1.0
O    4       0.8282460000000      0.7959790000000      0.0000000000000 1.0
END
