TITL 2LFP-201124-025537-4123ee 0.005 173.749 -94.8587 0.00 0.00 14 (Pma2) n - 1
REM ALGO Normal
REM EDIFF 1.4e-05
REM EDIFFG -0.03
REM ENCUT 520
REM ENMAX 520.0
REM GGA Pe
REM IBRION -1
REM ICHARG 0
REM ISIF 3
REM ISMEAR 0
REM ISPIN 2
REM ISTART 1
REM KPOINT_BSE -1 0 0 0
REM LAECHG True
REM LASPH True
REM LCHARG True
REM LDAU True
REM LDAUJ [0.0, 0.0, 0.0, 0.0]
REM LDAUL [0, 2, 0, 0]
REM LDAUPRINT 1
REM LDAUTYPE 2
REM LDAUU [0.0, 4.0, 0.0, 0.0]
REM LMAXMIX 4
REM LORBIT 11
REM LREAL False
REM LVHAR True
REM LWAVE False
REM MAGMOM [0.0, 0.0, 3.692, 3.692, 0.009, 0.009, 0.039, 0.03, 0.034, 0.034, 0.039, 0.031, 0.034, 0.034]
REM NELM 200
REM NELMIN 6
REM NSW 0
REM PREC Accurate
REM SIGMA 0.05
REM @module pymatgen.io.vasp.inputs
REM @class Incar
REM kpoint grid [[6, 4, 4]]
REM potcar symbols ['Li_sv', 'Fe_pv', 'P', 'O']
REM potcar functional PBE
CELL 1.0 4.526698     6.157618     6.233449     89.990787    90.000000    90.000000   
LATT -1
SFAC Li Fe P O
Li   1       0.5597020000000      0.0000000000000      0.5000000000000 1.0
Li   1       0.5597530000000      0.5000000000000      0.5000000000000 1.0
Fe   2       0.0579990000000      0.7498780000000      0.7747040000000 1.0
Fe   2       0.0579990000000      0.2501220000000      0.2252960000000 1.0
P    3       0.0583260000000      0.2499380000000      0.7317180000000 1.0
P    3       0.0583260000000      0.7500620000000      0.2682820000000 1.0
O    4       0.8734440000000      0.2499770000000      0.9378920000000 1.0
O    4       0.8443940000000      0.2499880000000      0.5286710000000 1.0
O    4       0.2555950000000      0.4571250000000      0.7212380000000 1.0
O    4       0.2555080000000      0.0426980000000      0.7212710000000 1.0
O    4       0.8734440000000      0.7500230000000      0.0621080000000 1.0
O    4       0.8443940000000      0.7500120000000      0.4713290000000 1.0
O    4       0.2555950000000      0.5428750000000      0.2787620000000 1.0
O    4       0.2555080000000      0.9573020000000      0.2787290000000 1.0
END
