TITL 2LFP-201123-230633-f24246 0.011 159.390 -91.1553 0.00 0.00 14 (P-1) n - 1
REM ALGO Normal
REM EDIFF 1.4e-05
REM EDIFFG -0.03
REM ENCUT 520
REM ENMAX 520.0
REM GGA Pe
REM IBRION -1
REM ICHARG 0
REM ISIF 3
REM ISMEAR 0
REM ISPIN 2
REM ISTART 1
REM KPOINT_BSE -1 0 0 0
REM LAECHG True
REM LASPH True
REM LCHARG True
REM LDAU True
REM LDAUJ [0.0, 0.0, 0.0, 0.0]
REM LDAUL [0, 2, 0, 0]
REM LDAUPRINT 1
REM LDAUTYPE 2
REM LDAUU [0.0, 4.0, 0.0, 0.0]
REM LMAXMIX 4
REM LORBIT 11
REM LREAL False
REM LVHAR True
REM LWAVE False
REM MAGMOM [-0.0, -0.0, 3.723, 3.704, 0.011, 0.011, 0.025, 0.027, 0.029, 0.025, 0.027, 0.029, 0.107, 0.035]
REM NELM 200
REM NELMIN 6
REM NSW 0
REM PREC Accurate
REM SIGMA 0.05
REM @module pymatgen.io.vasp.inputs
REM @class Incar
REM kpoint grid [[7, 6, 3]]
REM potcar symbols ['Li_sv', 'Fe_pv', 'P', 'O']
REM potcar functional PBE
CELL 1.0 4.232556     4.821917     9.154435     110.507518   93.419227    111.201588  
LATT -1
SFAC Li Fe P O
Li   1       0.3636230000000      0.6872800000000      0.6710900000000 1.0
Li   1       0.6363770000000      0.3127200000000      0.3289100000000 1.0
Fe   2       0.0000000000000      0.0000000000000      0.0000000000000 1.0
Fe   2       0.0000000000000      0.0000000000000      0.5000000000000 1.0
P    3       0.6865660000000      0.3065130000000      0.8330690000000 1.0
P    3       0.3134340000000      0.6934870000000      0.1669310000000 1.0
O    4       0.8076920000000      0.1034910000000      0.6991280000000 1.0
O    4       0.6394130000000      0.5864010000000      0.8100120000000 1.0
O    4       0.3793440000000      0.0731020000000      0.8688320000000 1.0
O    4       0.1923080000000      0.8965090000000      0.3008720000000 1.0
O    4       0.3605870000000      0.4135990000000      0.1899880000000 1.0
O    4       0.6206560000000      0.9268980000000      0.1311680000000 1.0
O    4       0.0000000000000      0.5000000000000      0.5000000000000 1.0
O    4       0.0000000000000      0.5000000000000      0.0000000000000 1.0
END
