TITL 2LFP-201130-192930-d77703 0.069 138.374 -89.9834 0.00 0.00 14 (P-1) n - 1
REM ALGO Normal
REM EDIFF 1.4e-05
REM EDIFFG -0.03
REM ENCUT 520
REM ENMAX 520.0
REM GGA Pe
REM IBRION -1
REM ICHARG 0
REM ISIF 3
REM ISMEAR -5
REM ISPIN 2
REM ISTART 1
REM KPOINT_BSE -1 0 0 0
REM LAECHG True
REM LASPH True
REM LCHARG True
REM LDAU True
REM LDAUJ [0.0, 0.0, 0.0, 0.0]
REM LDAUL [0, 2, 0, 0]
REM LDAUPRINT 1
REM LDAUTYPE 2
REM LDAUU [0.0, 4.0, 0.0, 0.0]
REM LMAXMIX 4
REM LORBIT 11
REM LREAL False
REM LVHAR True
REM LWAVE False
REM MAGMOM [-0.001, -0.001, 3.638, 3.638, 0.008, 0.016, 0.067, 0.046, 0.032, 0.049, 0.067, 0.046, 0.032, 0.049]
REM NCORE 4
REM NELM 200
REM NELMIN 6
REM NSW 0
REM POTIM 0.6
REM PREC Accurate
REM SIGMA 0.05
REM @module pymatgen.io.vasp.inputs
REM @class Incar
REM kpoint grid [[5, 5, 5]]
REM potcar symbols ['Li_sv', 'Fe_pv', 'P', 'O']
REM potcar functional PBE
CELL 1.0 5.521615     5.850394     5.594305     103.587233   103.748634   52.537897   
LATT -1
SFAC Li Fe P O
Li   1       0.2552040000000      0.9077480000000      0.6625910000000 1.0
Li   1       0.7447960000000      0.0922520000000      0.3374090000000 1.0
Fe   2       0.2897910000000      0.9302310000000      0.1785650000000 1.0
Fe   2       0.7102090000000      0.0697690000000      0.8214350000000 1.0
P    3       0.0000000000000      0.5000000000000      0.5000000000000 1.0
P    3       0.0000000000000      0.5000000000000      0.0000000000000 1.0
O    4       0.9839370000000      0.7998040000000      0.0792110000000 1.0
O    4       0.2757430000000      0.3450500000000      0.2725930000000 1.0
O    4       0.7315980000000      0.6302870000000      0.2154870000000 1.0
O    4       0.0185060000000      0.2050090000000      0.4409160000000 1.0
O    4       0.0160630000000      0.2001960000000      0.9207890000000 1.0
O    4       0.7242570000000      0.6549500000000      0.7274070000000 1.0
O    4       0.2684020000000      0.3697130000000      0.7845130000000 1.0
O    4       0.9814940000000      0.7949910000000      0.5590840000000 1.0
END
