TITL 2LFP-201124-052921-b9320c -0.018 179.503 -95.9301 0.00 0.00 14 (P21) n - 1
REM ALGO Normal
REM EDIFF 1.4e-05
REM EDIFFG -0.03
REM ENCUT 520
REM ENMAX 520.0
REM GGA Pe
REM IBRION -1
REM ICHARG 0
REM ISIF 3
REM ISMEAR 0
REM ISPIN 2
REM ISTART 1
REM KPOINT_BSE -1 0 0 0
REM LAECHG True
REM LASPH True
REM LCHARG True
REM LDAU True
REM LDAUJ [0.0, 0.0, 0.0, 0.0]
REM LDAUL [0, 2, 0, 0]
REM LDAUPRINT 1
REM LDAUTYPE 2
REM LDAUU [0.0, 4.0, 0.0, 0.0]
REM LMAXMIX 4
REM LORBIT 11
REM LREAL False
REM LVHAR True
REM LWAVE False
REM MAGMOM [0.0, 0.0, 3.698, 3.698, 0.01, 0.01, 0.031, 0.033, 0.031, 0.031, 0.031, 0.033, 0.031, 0.03]
REM NELM 200
REM NELMIN 6
REM NSW 0
REM PREC Accurate
REM SIGMA 0.05
REM @module pymatgen.io.vasp.inputs
REM @class Incar
REM kpoint grid [[5, 5, 4]]
REM potcar symbols ['Li_sv', 'Fe_pv', 'P', 'O']
REM potcar functional PBE
CELL 1.0 5.074637     5.200075     6.802609     90.000000    90.000000    90.510245   
LATT -1
SFAC Li Fe P O
Li   1       0.8071420000000      0.7972750000000      0.3945230000000 1.0
Li   1       0.1928580000000      0.2027250000000      0.8945230000000 1.0
Fe   2       0.8022230000000      0.7929780000000      0.9004600000000 1.0
Fe   2       0.1977770000000      0.2070220000000      0.4004600000000 1.0
P    3       0.3118880000000      0.6979460000000      0.6460510000000 1.0
P    3       0.6881120000000      0.3020540000000      0.1460510000000 1.0
O    4       0.2410500000000      0.4050500000000      0.6501950000000 1.0
O    4       0.2005710000000      0.8273220000000      0.8338260000000 1.0
O    4       0.6167530000000      0.7374060000000      0.6434580000000 1.0
O    4       0.1914540000000      0.8166910000000      0.4575420000000 1.0
O    4       0.7589500000000      0.5949500000000      0.1501950000000 1.0
O    4       0.7994290000000      0.1726780000000      0.3338260000000 1.0
O    4       0.3832470000000      0.2625940000000      0.1434580000000 1.0
O    4       0.8085460000000      0.1833090000000      0.9575420000000 1.0
END
