TITL 2LFP-201124-002024-ff10d1 0.016 147.496 -95.1131 0.00 0.00 14 (P-1) n - 1
REM ALGO Normal
REM EDIFF 1.4e-05
REM EDIFFG -0.03
REM ENCUT 520
REM ENMAX 520.0
REM GGA Pe
REM IBRION -1
REM ICHARG 0
REM ISIF 3
REM ISMEAR 0
REM ISPIN 2
REM ISTART 1
REM KPOINT_BSE -1 0 0 0
REM LAECHG True
REM LASPH True
REM LCHARG True
REM LDAU True
REM LDAUJ [0.0, 0.0, 0.0, 0.0]
REM LDAUL [0, 2, 0, 0]
REM LDAUPRINT 1
REM LDAUTYPE 2
REM LDAUU [0.0, 4.0, 0.0, 0.0]
REM LMAXMIX 4
REM LORBIT 11
REM LREAL False
REM LVHAR True
REM LWAVE False
REM MAGMOM [0.0, 0.0, 3.742, 3.723, 0.008, 0.008, 0.026, 0.048, 0.026, 0.048, 0.026, 0.048, 0.026, 0.048]
REM NELM 200
REM NELMIN 6
REM NSW 0
REM PREC Accurate
REM SIGMA 0.05
REM @module pymatgen.io.vasp.inputs
REM @class Incar
REM kpoint grid [[5, 6, 5]]
REM potcar symbols ['Li_sv', 'Fe_pv', 'P', 'O']
REM potcar functional PBE
CELL 1.0 5.678238     5.003819     5.939757     93.511198    118.818509   90.064353   
LATT -1
SFAC Li Fe P O
Li   1       0.3091460000000      0.5990630000000      0.1180110000000 1.0
Li   1       0.6908540000000      0.4009370000000      0.8819890000000 1.0
Fe   2       0.5000000000000      0.0000000000000      0.5000000000000 1.0
Fe   2       0.0000000000000      0.5000000000000      0.5000000000000 1.0
P    3       0.8277900000000      0.8976590000000      0.1542810000000 1.0
P    3       0.1722100000000      0.1023410000000      0.8457190000000 1.0
O    4       0.6846020000000      0.7911790000000      0.8689490000000 1.0
O    4       0.1174790000000      0.7713900000000      0.2955230000000 1.0
O    4       0.8463240000000      0.2044640000000      0.1901210000000 1.0
O    4       0.6793850000000      0.7713370000000      0.2942470000000 1.0
O    4       0.3153980000000      0.2088210000000      0.1310510000000 1.0
O    4       0.8825210000000      0.2286100000000      0.7044770000000 1.0
O    4       0.1536760000000      0.7955360000000      0.8098790000000 1.0
O    4       0.3206150000000      0.2286630000000      0.7057530000000 1.0
END
