TITL 2LFP-201123-224810-c8f611 0.005 165.288 -88.5368 0.00 0.00 14 (P-1) n - 1
REM ALGO Normal
REM EDIFF 1.4e-05
REM EDIFFG -0.03
REM ENCUT 520
REM ENMAX 520.0
REM GGA Pe
REM IBRION -1
REM ICHARG 0
REM ISIF 3
REM ISMEAR 0
REM ISPIN 2
REM ISTART 1
REM KPOINT_BSE -1 0 0 0
REM LAECHG True
REM LASPH True
REM LCHARG True
REM LDAU True
REM LDAUJ [0.0, 0.0, 0.0, 0.0]
REM LDAUL [0, 2, 0, 0]
REM LDAUPRINT 1
REM LDAUTYPE 2
REM LDAUU [0.0, 4.0, 0.0, 0.0]
REM LMAXMIX 4
REM LORBIT 11
REM LREAL False
REM LVHAR True
REM LWAVE False
REM MAGMOM [0.001, 0.001, 3.67, 4.13, -0.049, -0.049, 0.014, 0.008, 0.001, 0.014, 0.008, 0.001, 0.187, 0.197]
REM NELM 200
REM NELMIN 6
REM NSW 0
REM PREC Accurate
REM SIGMA 0.05
REM @module pymatgen.io.vasp.inputs
REM @class Incar
REM kpoint grid [[7, 7, 2]]
REM potcar symbols ['Li_sv', 'Fe_pv', 'P', 'O']
REM potcar functional PBE
CELL 1.0 3.794847     3.862807     11.805167    93.392163    73.805672    86.259750   
LATT -1
SFAC Li Fe P O
Li   1       0.4561390000000      0.9873940000000      0.1069350000000 1.0
Li   1       0.5438610000000      0.0126060000000      0.8930650000000 1.0
Fe   2       0.0000000000000      0.0000000000000      0.5000000000000 1.0
Fe   2       0.0000000000000      0.5000000000000      0.0000000000000 1.0
P    3       0.1886350000000      0.4218500000000      0.6854920000000 1.0
P    3       0.8113650000000      0.5781500000000      0.3145080000000 1.0
O    4       0.2532440000000      0.3898790000000      0.8058720000000 1.0
O    4       0.9797590000000      0.7632690000000      0.6687960000000 1.0
O    4       0.5045340000000      0.2648490000000      0.5801430000000 1.0
O    4       0.7467560000000      0.6101210000000      0.1941280000000 1.0
O    4       0.0202410000000      0.2367310000000      0.3312040000000 1.0
O    4       0.4954660000000      0.7351510000000      0.4198570000000 1.0
O    4       0.0000000000000      0.0000000000000      0.0000000000000 1.0
O    4       0.5000000000000      0.5000000000000      0.0000000000000 1.0
END
