TITL 4LFP-201127-004658-0562a3 -0.004 347.056 -189.6061 0.00 0.00 28 (Pmn21) n - 1
REM ALGO Normal
REM EDIFF 2.8e-05
REM EDIFFG -0.03
REM ENCUT 520
REM ENMAX 520.0
REM GGA Pe
REM IBRION -1
REM ICHARG 0
REM ISIF 3
REM ISMEAR 0
REM ISPIN 2
REM ISTART 1
REM KPOINT_BSE -1 0 0 0
REM LAECHG True
REM LASPH True
REM LCHARG True
REM LDAU True
REM LDAUJ [0.0, 0.0, 0.0, 0.0]
REM LDAUL [0, 2, 0, 0]
REM LDAUPRINT 1
REM LDAUTYPE 2
REM LDAUU [0.0, 4.0, 0.0, 0.0]
REM LMAXMIX 4
REM LORBIT 11
REM LREAL False
REM LVHAR True
REM LWAVE False
REM MAGMOM [0.0, 0.0, 0.0, 0.0, 3.721, 3.721, 3.721, 3.721, 0.012, 0.012, 0.012, 0.012, 0.037, 0.037, 0.037, 0.037, 0.037, 0.037, 0.037, 0.037, 0.037, 0.037, 0.037, 0.037, 0.037, 0.037, 0.037, 0.037]
REM NELM 200
REM NELMIN 6
REM NSW 0
REM PREC Accurate
REM SIGMA 0.05
REM @module pymatgen.io.vasp.inputs
REM @class Incar
REM kpoint grid [[7, 3, 3]]
REM potcar symbols ['Li_sv', 'Fe_pv', 'P', 'O']
REM potcar functional PBE
CELL 1.0 3.994603     9.129289     9.516770     90.000000    90.000000    90.000000   
LATT -1
SFAC Li Fe P O
Li   1       0.9988340000000      0.1396660000000      0.2528740000000 1.0
Li   1       0.0011660000000      0.6396660000000      0.2471260000000 1.0
Li   1       0.0011660000000      0.6396660000000      0.7528740000000 1.0
Li   1       0.9988340000000      0.1396660000000      0.7471260000000 1.0
Fe   2       0.0073190000000      0.8918760000000      0.0000000000000 1.0
Fe   2       0.9926810000000      0.3918760000000      0.5000000000000 1.0
Fe   2       0.9926090000000      0.3874310000000      0.0000000000000 1.0
Fe   2       0.0073910000000      0.8874310000000      0.5000000000000 1.0
P    3       0.5055710000000      0.8896480000000      0.2498750000000 1.0
P    3       0.4944290000000      0.3896480000000      0.2501250000000 1.0
P    3       0.4944290000000      0.3896480000000      0.7498750000000 1.0
P    3       0.5055710000000      0.8896480000000      0.7501250000000 1.0
O    4       0.2857480000000      0.9881170000000      0.3467830000000 1.0
O    4       0.2861170000000      0.7910630000000      0.1529950000000 1.0
O    4       0.7255340000000      0.9894350000000      0.1540400000000 1.0
O    4       0.7261830000000      0.7900880000000      0.3456350000000 1.0
O    4       0.7142520000000      0.4881170000000      0.1532170000000 1.0
O    4       0.7138830000000      0.2910630000000      0.3470050000000 1.0
O    4       0.2744660000000      0.4894350000000      0.3459600000000 1.0
O    4       0.2738170000000      0.2900880000000      0.1543650000000 1.0
O    4       0.7142520000000      0.4881170000000      0.8467830000000 1.0
O    4       0.7138830000000      0.2910630000000      0.6529950000000 1.0
O    4       0.2744660000000      0.4894350000000      0.6540400000000 1.0
O    4       0.2738170000000      0.2900880000000      0.8456350000000 1.0
O    4       0.2857480000000      0.9881170000000      0.6532170000000 1.0
O    4       0.2861170000000      0.7910630000000      0.8470050000000 1.0
O    4       0.7255340000000      0.9894350000000      0.8459600000000 1.0
O    4       0.7261830000000      0.7900880000000      0.6543650000000 1.0
END
