TITL 4LFP-201127-012807-4d0c84 -0.006 363.616 -186.7647 0.00 0.00 28 (Pm) n - 1
REM ALGO Normal
REM EDIFF 2.8e-05
REM EDIFFG -0.03
REM ENCUT 520
REM ENMAX 520.0
REM GGA Pe
REM IBRION -1
REM ICHARG 0
REM ISIF 3
REM ISMEAR 0
REM ISPIN 2
REM ISTART 1
REM KPOINT_BSE -1 0 0 0
REM LAECHG True
REM LASPH True
REM LCHARG True
REM LDAU True
REM LDAUJ [0.0, 0.0, 0.0, 0.0]
REM LDAUL [0, 2, 0, 0]
REM LDAUPRINT 1
REM LDAUTYPE 2
REM LDAUU [0.0, 4.0, 0.0, 0.0]
REM LMAXMIX 4
REM LORBIT 11
REM LREAL False
REM LVHAR True
REM LWAVE False
REM MAGMOM [0.001, 0.001, 0.001, 0.001, 4.217, 3.717, 3.723, 4.213, 0.014, 0.014, 0.009, 0.009, 0.108, 0.008, 0.057, 0.112, 0.108, 0.008, 0.057, 0.112, 0.032, 0.043, 0.036, 0.032, 0.043, 0.036, 0.307, 0.327]
REM NELM 200
REM NELMIN 6
REM NSW 0
REM PREC Accurate
REM SIGMA 0.05
REM @module pymatgen.io.vasp.inputs
REM @class Incar
REM kpoint grid [[5, 3, 3]]
REM potcar symbols ['Li_sv', 'Fe_pv', 'P', 'O']
REM potcar functional PBE
CELL 1.0 5.264250     7.537790     9.949900     90.000000    90.000000    112.932348  
LATT -1
SFAC Li Fe P O
Li   1       0.9224690000000      0.0387690000000      0.6731330000000 1.0
Li   1       0.9224690000000      0.0387690000000      0.3268670000000 1.0
Li   1       0.6757520000000      0.5845880000000      0.3230580000000 1.0
Li   1       0.6757520000000      0.5845880000000      0.6769420000000 1.0
Fe   2       0.4727440000000      0.1505760000000      0.5000000000000 1.0
Fe   2       0.8078890000000      0.1544370000000      0.0000000000000 1.0
Fe   2       0.3564640000000      0.6624110000000      0.0000000000000 1.0
Fe   2       0.1270510000000      0.4548290000000      0.5000000000000 1.0
P    3       0.3050450000000      0.8011460000000      0.2963230000000 1.0
P    3       0.3050450000000      0.8011460000000      0.7036770000000 1.0
P    3       0.3754860000000      0.2878130000000      0.1088250000000 1.0
P    3       0.3754860000000      0.2878130000000      0.8911750000000 1.0
O    4       0.0730460000000      0.6112140000000      0.3560630000000 1.0
O    4       0.5909800000000      0.8117420000000      0.3368640000000 1.0
O    4       0.2548510000000      0.8005490000000      0.1446400000000 1.0
O    4       0.2557290000000      0.9768760000000      0.3608430000000 1.0
O    4       0.0730460000000      0.6112140000000      0.6439370000000 1.0
O    4       0.5909800000000      0.8117420000000      0.6631360000000 1.0
O    4       0.2548510000000      0.8005490000000      0.8553600000000 1.0
O    4       0.2557290000000      0.9768760000000      0.6391570000000 1.0
O    4       0.4536840000000      0.5011860000000      0.1493030000000 1.0
O    4       0.6020350000000      0.2192120000000      0.1513400000000 1.0
O    4       0.0770370000000      0.1576960000000      0.1507230000000 1.0
O    4       0.4536840000000      0.5011860000000      0.8506970000000 1.0
O    4       0.6020350000000      0.2192120000000      0.8486600000000 1.0
O    4       0.0770370000000      0.1576960000000      0.8492770000000 1.0
O    4       0.4519370000000      0.3993800000000      0.5000000000000 1.0
O    4       0.8540740000000      0.2008800000000      0.5000000000000 1.0
END
