TITL 4LFP-201127-003910-25dc87 0.157 387.582 -185.8809 0.00 0.00 28 (Cm) n - 1
REM ALGO Normal
REM EDIFF 2.8e-05
REM EDIFFG -0.03
REM ENCUT 520
REM ENMAX 520.0
REM GGA Pe
REM IBRION -1
REM ICHARG 0
REM ISIF 3
REM ISMEAR 0
REM ISPIN 2
REM ISTART 1
REM KPOINT_BSE -1 0 0 0
REM LAECHG True
REM LASPH True
REM LCHARG True
REM LDAU True
REM LDAUJ [0.0, 0.0, 0.0, 0.0]
REM LDAUL [0, 2, 0, 0]
REM LDAUPRINT 1
REM LDAUTYPE 2
REM LDAUU [0.0, 4.0, 0.0, 0.0]
REM LMAXMIX 4
REM LORBIT 11
REM LREAL False
REM LVHAR True
REM LWAVE False
REM MAGMOM [0.001, 0.001, 0.0, 0.0, 3.693, 3.719, 3.653, 3.66, 0.007, 0.007, 0.01, 0.01, 0.029, 0.005, 0.037, 0.002, 0.029, 0.005, 0.037, 0.002, 0.006, 0.027, 0.041, 0.006, 0.027, 0.041, 0.196, 0.157]
REM NELM 200
REM NELMIN 6
REM NSW 0
REM PREC Accurate
REM SIGMA 0.05
REM @module pymatgen.io.vasp.inputs
REM @class Incar
REM kpoint grid [[4, 4, 3]]
REM potcar symbols ['Li_sv', 'Fe_pv', 'P', 'O']
REM potcar functional PBE
CELL 1.0 7.472422     7.472421     7.893670     106.343742   106.343737   101.187598  
LATT -1
SFAC Li Fe P O
Li   1       0.8301530000000      0.5688970000000      0.9783920000000 1.0
Li   1       0.5688970000000      0.8301530000000      0.9783920000000 1.0
Li   1       0.3339340000000      0.8484190000000      0.5812640000000 1.0
Li   1       0.8484190000000      0.3339340000000      0.5812640000000 1.0
Fe   2       0.3289900000000      0.3289900000000      0.8139080000000 1.0
Fe   2       0.8858970000000      0.8858970000000      0.6042930000000 1.0
Fe   2       0.4817320000000      0.4817320000000      0.3618900000000 1.0
Fe   2       0.1273080000000      0.1273080000000      0.4115280000000 1.0
P    3       0.6899980000000      0.1625930000000      0.8384440000000 1.0
P    3       0.1625930000000      0.6899980000000      0.8384440000000 1.0
P    3       0.9916540000000      0.4080750000000      0.2294840000000 1.0
P    3       0.4080750000000      0.9916540000000      0.2294840000000 1.0
O    4       0.7561560000000      0.1250190000000      0.6691720000000 1.0
O    4       0.8851500000000      0.2259550000000      0.0241140000000 1.0
O    4       0.6055930000000      0.3399240000000      0.8614470000000 1.0
O    4       0.5467570000000      0.9844250000000      0.8321220000000 1.0
O    4       0.1250190000000      0.7561560000000      0.6691720000000 1.0
O    4       0.2259550000000      0.8851500000000      0.0241140000000 1.0
O    4       0.3399240000000      0.6055930000000      0.8614470000000 1.0
O    4       0.9844250000000      0.5467570000000      0.8321220000000 1.0
O    4       0.8932470000000      0.5652250000000      0.2263320000000 1.0
O    4       0.9687940000000      0.3043860000000      0.3723100000000 1.0
O    4       0.2068730000000      0.4695470000000      0.2505860000000 1.0
O    4       0.5652250000000      0.8932470000000      0.2263320000000 1.0
O    4       0.3043860000000      0.9687940000000      0.3723100000000 1.0
O    4       0.4695470000000      0.2068730000000      0.2505860000000 1.0
O    4       0.1128830000000      0.1128830000000      0.6432080000000 1.0
O    4       0.6746400000000      0.6746400000000      0.5651340000000 1.0
END
