TITL 4LFP-201126-192432-fd4892 -1.267 400.842 -189.4759 0.00 0.00 28 (P1) n - 1
REM ALGO Normal
REM EDIFF 2.8e-05
REM EDIFFG -0.03
REM ENCUT 520
REM ENMAX 520.0
REM GGA Pe
REM IBRION -1
REM ICHARG 0
REM ISIF 3
REM ISMEAR 0
REM ISPIN 2
REM ISTART 1
REM KPOINT_BSE -1 0 0 0
REM LAECHG True
REM LASPH True
REM LCHARG True
REM LDAU True
REM LDAUJ [0.0, 0.0, 0.0, 0.0]
REM LDAUL [0, 2, 0, 0]
REM LDAUPRINT 1
REM LDAUTYPE 2
REM LDAUU [0.0, 4.0, 0.0, 0.0]
REM LMAXMIX 4
REM LORBIT 11
REM LREAL False
REM LVHAR True
REM LWAVE False
REM MAGMOM [0.001, 0.001, 0.0, 0.0, 3.699, 3.699, 3.707, 3.708, 0.006, 0.006, 0.013, 0.013, 0.032, 0.059, 0.021, 0.045, 0.032, 0.058, 0.021, 0.046, 0.046, 0.03, 0.029, 0.035, 0.046, 0.03, 0.029, 0.035]
REM NELM 200
REM NELMIN 6
REM NSW 0
REM PREC Accurate
REM SIGMA 0.05
REM @module pymatgen.io.vasp.inputs
REM @class Incar
REM kpoint grid [[5, 3, 3]]
REM potcar symbols ['Li_sv', 'Fe_pv', 'P', 'O']
REM potcar functional PBE
CELL 1.0 4.950390     9.219933     9.124017     92.174028    90.000000    105.572724  
LATT -1
SFAC Li Fe P O
Li   1       0.0179520000000      0.5327090000000      0.6018280000000 1.0
Li   1       0.4852450000000      0.4672930000000      0.3981720000000 1.0
Li   1       0.9784700000000      0.2583410000000      0.8974170000000 1.0
Li   1       0.7201300000000      0.7416610000000      0.1025830000000 1.0
Fe   2       0.3332490000000      0.9128860000000      0.6485520000000 1.0
Fe   2       0.4203630000000      0.0871160000000      0.3514480000000 1.0
Fe   2       0.0695320000000      0.5096710000000      0.1716990000000 1.0
Fe   2       0.5598630000000      0.4903310000000      0.8283010000000 1.0
P    3       0.1327970000000      0.7389100000000      0.3973140000000 1.0
P    3       0.3938870000000      0.2610920000000      0.6026860000000 1.0
P    3       0.1914330000000      0.6972050000000      0.9004070000000 1.0
P    3       0.4942290000000      0.3027970000000      0.0995930000000 1.0
O    4       0.2170010000000      0.5854100000000      0.3856900000000 1.0
O    4       0.4013150000000      0.8774340000000      0.4020010000000 1.0
O    4       0.9343710000000      0.7408890000000      0.2710870000000 1.0
O    4       0.0107050000000      0.7456260000000      0.5550000000000 1.0
O    4       0.6315910000000      0.4145920000000      0.6143100000000 1.0
O    4       0.5238820000000      0.1225680000000      0.5979990000000 1.0
O    4       0.1934840000000      0.2591130000000      0.7289130000000 1.0
O    4       0.2650780000000      0.2543760000000      0.4450000000000 1.0
O    4       0.3293270000000      0.8585230000000      0.8519850000000 1.0
O    4       0.8706060000000      0.6694490000000      0.9236670000000 1.0
O    4       0.2390150000000      0.5791010000000      0.7818830000000 1.0
O    4       0.3292710000000      0.6682460000000      0.0468570000000 1.0
O    4       0.4708050000000      0.1414790000000      0.1480150000000 1.0
O    4       0.2011600000000      0.3305530000000      0.0763330000000 1.0
O    4       0.6599150000000      0.4209010000000      0.2181170000000 1.0
O    4       0.6610270000000      0.3317560000000      0.9531430000000 1.0
END
