TITL 4LFP-201127-004844-d8529a 0.008 340.854 -186.8133 0.00 0.00 28 (P-1) n - 1
REM ALGO Normal
REM EDIFF 2.8e-05
REM EDIFFG -0.03
REM ENCUT 520
REM ENMAX 520.0
REM GGA Pe
REM IBRION -1
REM ICHARG 0
REM ISIF 3
REM ISMEAR 0
REM ISPIN 2
REM ISTART 1
REM KPOINT_BSE -1 0 0 0
REM LAECHG True
REM LASPH True
REM LCHARG True
REM LDAU True
REM LDAUJ [0.0, 0.0, 0.0, 0.0]
REM LDAUL [0, 2, 0, 0]
REM LDAUPRINT 1
REM LDAUTYPE 2
REM LDAUU [0.0, 4.0, 0.0, 0.0]
REM LMAXMIX 4
REM LORBIT 11
REM LREAL False
REM LVHAR True
REM LWAVE False
REM MAGMOM [-0.0, -0.0, -0.0, -0.0, 3.715, 3.715, 3.691, 3.691, 0.013, 0.013, 0.008, 0.008, 0.045, 0.029, 0.031, 0.04, 0.045, 0.029, 0.031, 0.04, 0.033, 0.004, 0.052, 0.033, 0.004, 0.052, 0.14, 0.007]
REM NELM 200
REM NELMIN 6
REM NSW 0
REM PREC Accurate
REM SIGMA 0.05
REM @module pymatgen.io.vasp.inputs
REM @class Incar
REM kpoint grid [[5, 5, 2]]
REM potcar symbols ['Li_sv', 'Fe_pv', 'P', 'O']
REM potcar functional PBE
CELL 1.0 5.687744     5.745679     10.577522    84.027108    83.670856    85.352428   
LATT -1
SFAC Li Fe P O
Li   1       0.7521440000000      0.0649770000000      0.8233420000000 1.0
Li   1       0.2478560000000      0.9350230000000      0.1766580000000 1.0
Li   1       0.0000000000000      0.5000000000000      0.5000000000000 1.0
Li   1       0.5000000000000      0.5000000000000      0.0000000000000 1.0
Fe   2       0.3169760000000      0.6518260000000      0.6962690000000 1.0
Fe   2       0.6830240000000      0.3481740000000      0.3037310000000 1.0
Fe   2       0.2291540000000      0.1285570000000      0.9207440000000 1.0
Fe   2       0.7708460000000      0.8714430000000      0.0792560000000 1.0
P    3       0.8474070000000      0.5643690000000      0.8091680000000 1.0
P    3       0.1525930000000      0.4356310000000      0.1908320000000 1.0
P    3       0.4830550000000      0.1517260000000      0.6199520000000 1.0
P    3       0.5169450000000      0.8482740000000      0.3800480000000 1.0
O    4       0.8980910000000      0.7501190000000      0.8982400000000 1.0
O    4       0.9494710000000      0.3152370000000      0.8580740000000 1.0
O    4       0.5715060000000      0.5470470000000      0.8184880000000 1.0
O    4       0.9601460000000      0.6454460000000      0.6740000000000 1.0
O    4       0.1019090000000      0.2498810000000      0.1017600000000 1.0
O    4       0.0505290000000      0.6847630000000      0.1419260000000 1.0
O    4       0.4284940000000      0.4529530000000      0.1815120000000 1.0
O    4       0.0398540000000      0.3545540000000      0.3260000000000 1.0
O    4       0.3312760000000      0.3782870000000      0.5866380000000 1.0
O    4       0.7316560000000      0.1834970000000      0.6466190000000 1.0
O    4       0.3458190000000      0.9950860000000      0.7305870000000 1.0
O    4       0.6687240000000      0.6217130000000      0.4133620000000 1.0
O    4       0.2683440000000      0.8165030000000      0.3533810000000 1.0
O    4       0.6541810000000      0.0049140000000      0.2694130000000 1.0
O    4       0.5000000000000      0.0000000000000      0.0000000000000 1.0
O    4       0.5000000000000      0.0000000000000      0.5000000000000 1.0
END
