TITL 4LFP-201127-002331-9d5351 0.041 303.563 -184.6551 0.00 0.00 28 (Pba2) n - 1
REM ALGO Normal
REM EDIFF 2.8e-05
REM EDIFFG -0.03
REM ENCUT 520
REM ENMAX 520.0
REM GGA Pe
REM IBRION -1
REM ICHARG 0
REM ISIF 3
REM ISMEAR 0
REM ISPIN 2
REM ISTART 1
REM KPOINT_BSE -1 0 0 0
REM LAECHG True
REM LASPH True
REM LCHARG True
REM LDAU True
REM LDAUJ [0.0, 0.0, 0.0, 0.0]
REM LDAUL [0, 2, 0, 0]
REM LDAUPRINT 1
REM LDAUTYPE 2
REM LDAUU [0.0, 4.0, 0.0, 0.0]
REM LMAXMIX 4
REM LORBIT 11
REM LREAL False
REM LVHAR True
REM LWAVE False
REM MAGMOM [-0.0, -0.0, -0.0, -0.0, 3.71, 3.71, 3.71, 3.71, 0.01, 0.01, 0.01, 0.01, 0.047, 0.048, 0.037, 0.014, 0.047, 0.048, 0.037, 0.014, 0.047, 0.048, 0.037, 0.014, 0.047, 0.048, 0.037, 0.014]
REM NELM 200
REM NELMIN 6
REM NSW 0
REM PREC Accurate
REM SIGMA 0.05
REM @module pymatgen.io.vasp.inputs
REM @class Incar
REM kpoint grid [[8, 3, 2]]
REM potcar symbols ['Li_sv', 'Fe_pv', 'P', 'O']
REM potcar functional PBE
CELL 1.0 3.446362     8.217035     10.719459    90.000000    90.000000    90.000000   
LATT -1
SFAC Li Fe P O
Li   1       0.5968520000000      0.0000700000000      0.6896870000000 1.0
Li   1       0.5968520000000      0.9999300000000      0.3103130000000 1.0
Li   1       0.5968520000000      0.5000700000000      0.8103130000000 1.0
Li   1       0.5968520000000      0.4999300000000      0.1896870000000 1.0
Fe   2       0.9776820000000      0.3276980000000      0.3940120000000 1.0
Fe   2       0.9776820000000      0.6723020000000      0.6059890000000 1.0
Fe   2       0.9776820000000      0.8276980000000      0.1059880000000 1.0
Fe   2       0.9776820000000      0.1723020000000      0.8940110000000 1.0
P    3       0.2544150000000      0.2192050000000      0.1378590000000 1.0
P    3       0.2544150000000      0.7807950000000      0.8621410000000 1.0
P    3       0.2544150000000      0.7192050000000      0.3621410000000 1.0
P    3       0.2544150000000      0.2807950000000      0.6378590000000 1.0
O    4       0.4746730000000      0.1902570000000      0.0112350000000 1.0
O    4       0.0236810000000      0.0580150000000      0.1603790000000 1.0
O    4       0.4703680000000      0.2408770000000      0.2694790000000 1.0
O    4       0.0426280000000      0.3815090000000      0.1191440000000 1.0
O    4       0.4746730000000      0.8097430000000      0.9887650000000 1.0
O    4       0.0236810000000      0.9419850000000      0.8396210000000 1.0
O    4       0.4703680000000      0.7591230000000      0.7305210000000 1.0
O    4       0.0426280000000      0.6184910000000      0.8808560000000 1.0
O    4       0.4746730000000      0.6902570000000      0.4887650000000 1.0
O    4       0.0236810000000      0.5580150000000      0.3396210000000 1.0
O    4       0.4703680000000      0.7408770000000      0.2305210000000 1.0
O    4       0.0426280000000      0.8815090000000      0.3808560000000 1.0
O    4       0.4746730000000      0.3097430000000      0.5112350000000 1.0
O    4       0.0236810000000      0.4419850000000      0.6603790000000 1.0
O    4       0.4703680000000      0.2591230000000      0.7694790000000 1.0
O    4       0.0426280000000      0.1184910000000      0.6191440000000 1.0
END
