TITL 4LFP-201127-000020-4d134a 0.018 321.181 -179.9982 0.00 0.00 28 (Cm) n - 1
REM ALGO Normal
REM EDIFF 2.8e-05
REM EDIFFG -0.03
REM ENCUT 520
REM ENMAX 520.0
REM GGA Pe
REM IBRION -1
REM ICHARG 0
REM ISIF 3
REM ISMEAR 0
REM ISPIN 2
REM ISTART 1
REM KPOINT_BSE -1 0 0 0
REM LAECHG True
REM LASPH True
REM LCHARG True
REM LDAU True
REM LDAUJ [0.0, 0.0, 0.0, 0.0]
REM LDAUL [0, 2, 0, 0]
REM LDAUPRINT 1
REM LDAUTYPE 2
REM LDAUU [0.0, 4.0, 0.0, 0.0]
REM LMAXMIX 4
REM LORBIT 11
REM LREAL False
REM LVHAR True
REM LWAVE False
REM MAGMOM [0.001, 0.001, 0.001, 0.0, 3.978, 3.966, 3.666, 3.672, 0.007, 0.007, 0.025, 0.0, 0.049, 0.039, 0.036, 0.044, 0.05, 0.041, 0.037, 0.045, 0.065, -0.254, 0.032, 0.138, 0.066, -0.255, 0.036, 0.143]
REM NELM 200
REM NELMIN 6
REM NSW 0
REM PREC Accurate
REM SIGMA 0.05
REM @module pymatgen.io.vasp.inputs
REM @class Incar
REM kpoint grid [[4, 4, 3]]
REM potcar symbols ['Li_sv', 'Fe_pv', 'P', 'O']
REM potcar functional PBE
CELL 1.0 6.541066     6.541067     9.066236     111.245032   111.245032   97.556396   
LATT -1
SFAC Li Fe P O
Li   1       0.4072130000000      0.4072130000000      0.1626700000000 1.0
Li   1       0.2761680000000      0.2761680000000      0.4259750000000 1.0
Li   1       0.8188120000000      0.8188120000000      0.4353350000000 1.0
Li   1       0.8694450000000      0.8694450000000      0.0777930000000 1.0
Fe   2       0.8944410000000      0.3669030000000      0.1029190000000 1.0
Fe   2       0.3669030000000      0.8944410000000      0.1029190000000 1.0
Fe   2       0.9373760000000      0.4286620000000      0.7772180000000 1.0
Fe   2       0.4286620000000      0.9373760000000      0.7772180000000 1.0
P    3       0.7388060000000      0.2757090000000      0.3573300000000 1.0
P    3       0.2757090000000      0.7388060000000      0.3573300000000 1.0
P    3       0.0277510000000      0.0277510000000      0.8503270000000 1.0
P    3       0.4797280000000      0.4797280000000      0.7683890000000 1.0
O    4       0.4919990000000      0.2130890000000      0.3432570000000 1.0
O    4       0.7476230000000      0.4496930000000      0.2749290000000 1.0
O    4       0.9303210000000      0.3786950000000      0.5458880000000 1.0
O    4       0.7596970000000      0.0486090000000      0.2363580000000 1.0
O    4       0.2130890000000      0.4919990000000      0.3432570000000 1.0
O    4       0.4496930000000      0.7476230000000      0.2749290000000 1.0
O    4       0.3786950000000      0.9303210000000      0.5458880000000 1.0
O    4       0.0486090000000      0.7596970000000      0.2363580000000 1.0
O    4       0.3297710000000      0.0967400000000      0.9788010000000 1.0
O    4       0.0751010000000      0.8648370000000      0.6811820000000 1.0
O    4       0.4077410000000      0.6638790000000      0.8822350000000 1.0
O    4       0.0235550000000      0.7849530000000      0.9180820000000 1.0
O    4       0.0967400000000      0.3297710000000      0.9788010000000 1.0
O    4       0.8648370000000      0.0751010000000      0.6811820000000 1.0
O    4       0.6638790000000      0.4077410000000      0.8822350000000 1.0
O    4       0.7849530000000      0.0235550000000      0.9180820000000 1.0
END
