TITL 4LFP-201127-013705-af0066 -0.049 383.568 -188.5305 0.00 0.00 28 (Iba2) n - 1
REM ALGO Normal
REM EDIFF 2.8e-05
REM EDIFFG -0.03
REM ENCUT 520
REM ENMAX 520.0
REM GGA Pe
REM IBRION -1
REM ICHARG 0
REM ISIF 3
REM ISMEAR 0
REM ISPIN 2
REM ISTART 1
REM KPOINT_BSE -1 0 0 0
REM LAECHG True
REM LASPH True
REM LCHARG True
REM LDAU True
REM LDAUJ [0.0, 0.0, 0.0, 0.0]
REM LDAUL [0, 2, 0, 0]
REM LDAUPRINT 1
REM LDAUTYPE 2
REM LDAUU [0.0, 4.0, 0.0, 0.0]
REM LMAXMIX 4
REM LORBIT 11
REM LREAL False
REM LVHAR True
REM LWAVE False
REM MAGMOM [0.001, 0.001, 0.002, 0.001, 3.691, 3.691, 3.691, 3.691, 0.01, 0.01, 0.01, 0.01, 0.022, 0.022, 0.026, 0.022, 0.022, 0.027, 0.022, 0.023, 0.026, 0.022, 0.021, 0.027, 0.006, 0.006, 0.126, 0.126]
REM NELM 200
REM NELMIN 6
REM NSW 0
REM PREC Accurate
REM SIGMA 0.05
REM @module pymatgen.io.vasp.inputs
REM @class Incar
REM kpoint grid [[3, 4, 4]]
REM potcar symbols ['Li_sv', 'Fe_pv', 'P', 'O']
REM potcar functional PBE
CELL 1.0 8.240640     7.985864     7.985865     79.038861    58.939822    58.939819   
LATT -1
SFAC Li Fe P O
Li   1       0.9817800000000      0.7447170000000      0.5051780000000 1.0
Li   1       0.0182200000000      0.4948220000000      0.2552830000000 1.0
Li   1       0.2316520000000      0.9947970000000      0.7553320000000 1.0
Li   1       0.7683480000000      0.2446680000000      0.0052030000000 1.0
Fe   2       0.7228650000000      0.5373640000000      0.7089780000000 1.0
Fe   2       0.2771350000000      0.2910220000000      0.4626360000000 1.0
Fe   2       0.9691700000000      0.7910180000000      0.9626510000000 1.0
Fe   2       0.0308300000000      0.0373490000000      0.2089820000000 1.0
P    3       0.2521330000000      0.2942340000000      0.9037740000000 1.0
P    3       0.7478670000000      0.0962260000000      0.7057660000000 1.0
P    3       0.4502220000000      0.5961820000000      0.2057240000000 1.0
P    3       0.5497780000000      0.7942760000000      0.4038180000000 1.0
O    4       0.2274920000000      0.2394770000000      0.7479160000000 1.0
O    4       0.2091090000000      0.5037640000000      0.9101450000000 1.0
O    4       0.1131120000000      0.2553430000000      0.1126220000000 1.0
O    4       0.7725080000000      0.2520840000000      0.7605230000000 1.0
O    4       0.7908910000000      0.0898550000000      0.4962360000000 1.0
O    4       0.8868880000000      0.8873780000000      0.7446570000000 1.0
O    4       0.2148610000000      0.7521110000000      0.2605300000000 1.0
O    4       0.6230090000000      0.5898770000000      0.9962520000000 1.0
O    4       0.4810860000000      0.3873850000000      0.2446380000000 1.0
O    4       0.7851390000000      0.7394700000000      0.2478890000000 1.0
O    4       0.3769910000000      0.0037480000000      0.4101230000000 1.0
O    4       0.5189140000000      0.7553620000000      0.6126150000000 1.0
O    4       0.5000000000000      0.1418200000000      0.8581800000000 1.0
O    4       0.5000000000000      0.6418150000000      0.3581850000000 1.0
O    4       0.0000000000000      0.0033130000000      0.9966870000000 1.0
O    4       0.0000000000000      0.5033590000000      0.4966410000000 1.0
END
