TITL 4LFP-201126-181721-1d37ed -0.008 291.126 -190.7884 0.00 0.00 28 (C2/m) n - 1
REM ALGO Normal
REM EDIFF 2.8e-05
REM EDIFFG -0.03
REM ENCUT 520
REM ENMAX 520.0
REM GGA Pe
REM IBRION -1
REM ICHARG 0
REM ISIF 3
REM ISMEAR 0
REM ISPIN 2
REM ISTART 1
REM KPOINT_BSE -1 0 0 0
REM LAECHG True
REM LASPH True
REM LCHARG True
REM LDAU True
REM LDAUJ [0.0, 0.0, 0.0, 0.0]
REM LDAUL [0, 2, 0, 0]
REM LDAUPRINT 1
REM LDAUTYPE 2
REM LDAUU [0.0, 4.0, 0.0, 0.0]
REM LMAXMIX 4
REM LORBIT 11
REM LREAL False
REM LVHAR True
REM LWAVE False
REM MAGMOM [0.0, 0.0, 0.0, 0.0, 3.728, 3.728, 3.728, 3.728, 0.013, 0.013, 0.013, 0.013, 0.028, 0.041, 0.029, 0.04, 0.028, 0.041, 0.029, 0.04, 0.028, 0.041, 0.029, 0.04, 0.028, 0.041, 0.029, 0.04]
REM NELM 200
REM NELMIN 6
REM NSW 0
REM PREC Accurate
REM SIGMA 0.05
REM @module pymatgen.io.vasp.inputs
REM @class Incar
REM kpoint grid [[5, 5, 3]]
REM potcar symbols ['Li_sv', 'Fe_pv', 'P', 'O']
REM potcar functional PBE
CELL 1.0 5.930194     5.930193     9.928186     106.980834   91.806557    117.275881  
LATT -1
SFAC Li Fe P O
Li   1       0.1733350000000      0.6697290000000      0.8419320000000 1.0
Li   1       0.8277990000000      0.8314030000000      0.6580680000000 1.0
Li   1       0.8266650000000      0.3302710000000      0.1580680000000 1.0
Li   1       0.1722010000000      0.1685970000000      0.3419320000000 1.0
Fe   2       0.7377370000000      0.2375690000000      0.5003750000000 1.0
Fe   2       0.7371950000000      0.7373630000000      0.9996250000000 1.0
Fe   2       0.2622630000000      0.7624310000000      0.4996250000000 1.0
Fe   2       0.2628050000000      0.2626370000000      0.0003750000000 1.0
P    3       0.6822210000000      0.6433690000000      0.3263870000000 1.0
P    3       0.3169810000000      0.8558330000000      0.1736130000000 1.0
P    3       0.3177790000000      0.3566310000000      0.6736130000000 1.0
P    3       0.6830190000000      0.1441670000000      0.8263870000000 1.0
O    4       0.8330900000000      0.9557030000000      0.3777210000000 1.0
O    4       0.8496370000000      0.5343700000000      0.3847450000000 1.0
O    4       0.4210150000000      0.5435970000000      0.3775180000000 1.0
O    4       0.6376590000000      0.5207920000000      0.1589330000000 1.0
O    4       0.5779810000000      0.9553690000000      0.1222790000000 1.0
O    4       0.1496240000000      0.9648920000000      0.1152550000000 1.0
O    4       0.1660790000000      0.5434970000000      0.1224820000000 1.0
O    4       0.3618590000000      0.9787260000000      0.3410670000000 1.0
O    4       0.1669100000000      0.0442970000000      0.6222790000000 1.0
O    4       0.1503630000000      0.4656300000000      0.6152550000000 1.0
O    4       0.5789850000000      0.4564030000000      0.6224820000000 1.0
O    4       0.3623410000000      0.4792080000000      0.8410670000000 1.0
O    4       0.4220190000000      0.0446310000000      0.8777210000000 1.0
O    4       0.8503760000000      0.0351080000000      0.8847450000000 1.0
O    4       0.8339210000000      0.4565030000000      0.8775180000000 1.0
O    4       0.6381410000000      0.0212740000000      0.6589330000000 1.0
END
