TITL 4LFP-201126-151154-757c0f -0.025 293.236 -190.1655 0.00 0.00 28 (Cc) n - 1
REM ALGO Normal
REM EDIFF 2.8e-05
REM EDIFFG -0.03
REM ENCUT 520
REM ENMAX 520.0
REM GGA Pe
REM IBRION -1
REM ICHARG 0
REM ISIF 3
REM ISMEAR 0
REM ISPIN 2
REM ISTART 1
REM KPOINT_BSE -1 0 0 0
REM LAECHG True
REM LASPH True
REM LCHARG True
REM LDAU True
REM LDAUJ [0.0, 0.0, 0.0, 0.0]
REM LDAUL [0, 2, 0, 0]
REM LDAUPRINT 1
REM LDAUTYPE 2
REM LDAUU [0.0, 4.0, 0.0, 0.0]
REM LMAXMIX 4
REM LORBIT 11
REM LREAL False
REM LVHAR True
REM LWAVE False
REM MAGMOM [-0.0, -0.0, -0.0, -0.0, 3.717, 3.717, 3.736, 3.739, 0.009, 0.01, 0.01, 0.01, 0.024, 0.048, 0.027, 0.047, 0.025, 0.049, 0.03, 0.044, 0.049, 0.027, 0.043, 0.03, 0.049, 0.026, 0.046, 0.027]
REM NELM 200
REM NELMIN 6
REM NSW 0
REM PREC Accurate
REM SIGMA 0.05
REM @module pymatgen.io.vasp.inputs
REM @class Incar
REM kpoint grid [[5, 5, 3]]
REM potcar symbols ['Li_sv', 'Fe_pv', 'P', 'O']
REM potcar functional PBE
CELL 1.0 5.805337     5.805338     9.988320     92.553195    92.553194    60.723044   
LATT -1
SFAC Li Fe P O
Li   1       0.2041410000000      0.2434310000000      0.9212840000000 1.0
Li   1       0.2434310000000      0.2041410000000      0.4212840000000 1.0
Li   1       0.5526750000000      0.5197260000000      0.5166380000000 1.0
Li   1       0.5197260000000      0.5526750000000      0.0166380000000 1.0
Fe   2       0.9173660000000      0.8435000000000      0.9680850000000 1.0
Fe   2       0.8435000000000      0.9173660000000      0.4680850000000 1.0
Fe   2       0.3770400000000      0.8826050000000      0.7189240000000 1.0
Fe   2       0.8826050000000      0.3770400000000      0.2189240000000 1.0
P    3       0.2267230000000      0.7074700000000      0.2730300000000 1.0
P    3       0.7074700000000      0.2267230000000      0.7730300000000 1.0
P    3       0.0460150000000      0.5377360000000      0.6640440000000 1.0
P    3       0.5377360000000      0.0460150000000      0.1640440000000 1.0
O    4       0.2104200000000      0.7079980000000      0.1189240000000 1.0
O    4       0.0747390000000      0.5722850000000      0.3320090000000 1.0
O    4       0.5174900000000      0.5639630000000      0.3257820000000 1.0
O    4       0.0803780000000      0.9998750000000      0.3347530000000 1.0
O    4       0.7079980000000      0.2104200000000      0.6189240000000 1.0
O    4       0.5722850000000      0.0747390000000      0.8320090000000 1.0
O    4       0.5639630000000      0.5174900000000      0.8257820000000 1.0
O    4       0.9998750000000      0.0803780000000      0.8347530000000 1.0
O    4       0.1814750000000      0.6899810000000      0.6054400000000 1.0
O    4       0.0463670000000      0.5532660000000      0.8182780000000 1.0
O    4       0.7537580000000      0.6850210000000      0.6027950000000 1.0
O    4       0.1893850000000      0.2471240000000      0.6113350000000 1.0
O    4       0.6899810000000      0.1814750000000      0.1054400000000 1.0
O    4       0.5532660000000      0.0463670000000      0.3182780000000 1.0
O    4       0.6850210000000      0.7537580000000      0.1027950000000 1.0
O    4       0.2471240000000      0.1893850000000      0.1113350000000 1.0
END
