TITL 4LFP-201126-100318-0eb9b5 0.049 306.860 -191.4088 0.00 0.00 28 (P21) n - 1
REM ALGO Normal
REM EDIFF 2.8e-06
REM EDIFFG -0.03
REM ENCUT 520
REM ENMAX 520.0
REM GGA Pe
REM IBRION -1
REM ICHARG 0
REM ISIF 3
REM ISMEAR 0
REM ISPIN 2
REM ISTART 1
REM KPOINT_BSE -1 0 0 0
REM LAECHG True
REM LASPH True
REM LCHARG True
REM LDAU True
REM LDAUJ [0.0, 0.0, 0.0, 0.0]
REM LDAUL [0, 2, 0, 0]
REM LDAUPRINT 1
REM LDAUTYPE 2
REM LDAUU [0.0, 4.0, 0.0, 0.0]
REM LMAXMIX 4
REM LORBIT 11
REM LREAL False
REM LVHAR True
REM LWAVE False
REM MAGMOM [0.0, 0.0, 0.0, 0.0, 3.718, 3.718, 3.727, 3.727, 0.01, 0.01, 0.007, 0.007, 0.047, 0.03, 0.033, 0.033, 0.047, 0.03, 0.033, 0.033, 0.027, 0.042, 0.046, 0.048, 0.027, 0.042, 0.046, 0.048]
REM NCORE 10
REM NELM 200
REM NELMIN 6
REM NSW 0
REM PREC Accurate
REM SIGMA 0.05
REM @module pymatgen.io.vasp.inputs
REM @class Incar
REM kpoint grid [[6, 4, 2]]
REM potcar symbols ['Li_sv', 'Fe_pv', 'P', 'O']
REM potcar functional PBE
CELL 1.0 4.791286     6.098545     10.510791    90.000000    90.000000    87.623475   
LATT -1
SFAC Li Fe P O
Li   1       0.2364330000000      0.2529530000000      0.9819100000000 1.0
Li   1       0.7635670000000      0.7470470000000      0.4819100000000 1.0
Li   1       0.2460920000000      0.9773920000000      0.2619570000000 1.0
Li   1       0.7539080000000      0.0226080000000      0.7619570000000 1.0
Fe   2       0.7510630000000      0.2339470000000      0.4666530000000 1.0
Fe   2       0.2489370000000      0.7660530000000      0.9666530000000 1.0
Fe   2       0.7362540000000      0.5096890000000      0.1869140000000 1.0
Fe   2       0.2637460000000      0.4903110000000      0.6869140000000 1.0
P    3       0.6704340000000      0.0180980000000      0.0628720000000 1.0
P    3       0.3295660000000      0.9819020000000      0.5628720000000 1.0
P    3       0.8318300000000      0.5134200000000      0.8690590000000 1.0
P    3       0.1681700000000      0.4865800000000      0.3690590000000 1.0
O    4       0.5470040000000      0.8146530000000      0.1328820000000 1.0
O    4       0.9928840000000      0.0038930000000      0.0568340000000 1.0
O    4       0.5328550000000      0.0167950000000      0.9275470000000 1.0
O    4       0.5537240000000      0.2284170000000      0.1301740000000 1.0
O    4       0.4529960000000      0.1853470000000      0.6328820000000 1.0
O    4       0.0071160000000      0.9961070000000      0.5568340000000 1.0
O    4       0.4671450000000      0.9832050000000      0.4275470000000 1.0
O    4       0.4462760000000      0.7715830000000      0.6301740000000 1.0
O    4       0.9543630000000      0.3103860000000      0.7967580000000 1.0
O    4       0.5071170000000      0.5219390000000      0.8735830000000 1.0
O    4       0.9597930000000      0.5072370000000      0.0078930000000 1.0
O    4       0.9568880000000      0.7200960000000      0.8063400000000 1.0
O    4       0.0456370000000      0.6896140000000      0.2967580000000 1.0
O    4       0.4928830000000      0.4780610000000      0.3735830000000 1.0
O    4       0.0402070000000      0.4927630000000      0.5078930000000 1.0
O    4       0.0431120000000      0.2799040000000      0.3063400000000 1.0
END
