TITL 4LFP-201127-000232-64e73b 0.006 329.167 -189.9912 0.00 0.00 28 (P21/c) n - 1
REM ALGO Normal
REM EDIFF 2.8e-05
REM EDIFFG -0.03
REM ENCUT 520
REM ENMAX 520.0
REM GGA Pe
REM IBRION -1
REM ICHARG 0
REM ISIF 3
REM ISMEAR 0
REM ISPIN 2
REM ISTART 1
REM KPOINT_BSE -1 0 0 0
REM LAECHG True
REM LASPH True
REM LCHARG True
REM LDAU True
REM LDAUJ [0.0, 0.0, 0.0, 0.0]
REM LDAUL [0, 2, 0, 0]
REM LDAUPRINT 1
REM LDAUTYPE 2
REM LDAUU [0.0, 4.0, 0.0, 0.0]
REM LMAXMIX 4
REM LORBIT 11
REM LREAL False
REM LVHAR True
REM LWAVE False
REM MAGMOM [0.0, 0.0, 0.0, 0.0, 3.709, 3.709, 3.709, 3.709, 0.01, 0.01, 0.01, 0.01, 0.046, 0.026, 0.033, 0.037, 0.046, 0.026, 0.033, 0.037, 0.046, 0.026, 0.033, 0.037, 0.046, 0.026, 0.033, 0.037]
REM NELM 200
REM NELMIN 6
REM NSW 0
REM PREC Accurate
REM SIGMA 0.05
REM @module pymatgen.io.vasp.inputs
REM @class Incar
REM kpoint grid [[5, 3, 3]]
REM potcar symbols ['Li_sv', 'Fe_pv', 'P', 'O']
REM potcar functional PBE
CELL 1.0 5.711621     7.568190     7.617674     90.000000    90.000000    88.459738   
LATT -1
SFAC Li Fe P O
Li   1       0.8907680000000      0.8845760000000      0.8759050000000 1.0
Li   1       0.6092320000000      0.6154240000000      0.3759050000000 1.0
Li   1       0.1092320000000      0.1154230000000      0.1240950000000 1.0
Li   1       0.3907680000000      0.3845760000000      0.6240950000000 1.0
Fe   2       0.9380990000000      0.2161280000000      0.5172430000000 1.0
Fe   2       0.5619010000000      0.2838720000000      0.0172430000000 1.0
Fe   2       0.0619010000000      0.7838720000000      0.4827570000000 1.0
Fe   2       0.4380990000000      0.7161280000000      0.9827570000000 1.0
P    3       0.8655120000000      0.5037220000000      0.7397990000000 1.0
P    3       0.6344880000000      0.9962780000000      0.2397990000000 1.0
P    3       0.1344880000000      0.4962780000000      0.2602010000000 1.0
P    3       0.3655120000000      0.0037220000000      0.7602010000000 1.0
O    4       0.7062980000000      0.5042660000000      0.9076640000000 1.0
O    4       0.7128140000000      0.4733240000000      0.5738450000000 1.0
O    4       0.9952030000000      0.6810540000000      0.7303990000000 1.0
O    4       0.0441750000000      0.3442790000000      0.7391920000000 1.0
O    4       0.7937020000000      0.9957340000000      0.4076640000000 1.0
O    4       0.7871860000000      0.0266760000000      0.0738450000000 1.0
O    4       0.5047970000000      0.8189460000000      0.2303990000000 1.0
O    4       0.4558250000000      0.1557210000000      0.2391920000000 1.0
O    4       0.2937020000000      0.4957340000000      0.0923360000000 1.0
O    4       0.2871860000000      0.5266760000000      0.4261550000000 1.0
O    4       0.0047970000000      0.3189460000000      0.2696010000000 1.0
O    4       0.9558250000000      0.6557210000000      0.2608080000000 1.0
O    4       0.2062980000000      0.0042660000000      0.5923360000000 1.0
O    4       0.2128140000000      0.9733240000000      0.9261550000000 1.0
O    4       0.4952030000000      0.1810540000000      0.7696010000000 1.0
O    4       0.5441750000000      0.8442790000000      0.7608080000000 1.0
END
