TITL 4LFP-201126-074414-0c3e87 -0.049 346.453 -188.4335 0.00 0.00 28 (Pcc2) n - 1
REM ALGO Normal
REM EDIFF 2.8e-05
REM EDIFFG -0.03
REM ENCUT 520
REM ENMAX 520.0
REM GGA Pe
REM IBRION -1
REM ICHARG 0
REM ISIF 3
REM ISMEAR 0
REM ISPIN 2
REM ISTART 1
REM KPOINT_BSE -1 0 0 0
REM LAECHG True
REM LASPH True
REM LCHARG True
REM LDAU True
REM LDAUJ [0.0, 0.0, 0.0, 0.0]
REM LDAUL [0, 2, 0, 0]
REM LDAUPRINT 1
REM LDAUTYPE 2
REM LDAUU [0.0, 4.0, 0.0, 0.0]
REM LMAXMIX 4
REM LORBIT 11
REM LREAL False
REM LVHAR True
REM LWAVE False
REM MAGMOM [0.0, 0.0, 0.0, 0.0, 3.7, 3.699, 3.699, 3.7, 0.011, 0.011, 0.011, 0.011, 0.048, 0.01, 0.04, 0.048, 0.048, 0.01, 0.039, 0.048, 0.048, 0.01, 0.039, 0.048, 0.048, 0.01, 0.04, 0.048]
REM NELM 200
REM NELMIN 6
REM NSW 0
REM POTIM 0.6
REM PREC Accurate
REM SIGMA 0.05
REM @module pymatgen.io.vasp.inputs
REM @class Incar
REM kpoint grid [[4, 4, 3]]
REM potcar symbols ['Li_sv', 'Fe_pv', 'P', 'O']
REM potcar functional PBE
CELL 1.0 6.668248     5.938188     8.749406     90.000000    90.000000    90.000000   
LATT -1
SFAC Li Fe P O
Li   1       0.1424900000000      0.6781770000000      0.0986670000000 1.0
Li   1       0.8575100000000      0.6781770000000      0.9013330000000 1.0
Li   1       0.1424900000000      0.1781770000000      0.9013330000000 1.0
Li   1       0.8575100000000      0.1781770000000      0.0986670000000 1.0
Fe   2       0.2894890000000      0.7774200000000      0.3907880000000 1.0
Fe   2       0.7105110000000      0.7774200000000      0.6092120000000 1.0
Fe   2       0.2894890000000      0.2774200000000      0.6092120000000 1.0
Fe   2       0.7105110000000      0.2774200000000      0.3907880000000 1.0
P    3       0.2800570000000      0.7682070000000      0.7516160000000 1.0
P    3       0.7199430000000      0.7682070000000      0.2483840000000 1.0
P    3       0.2800570000000      0.2682070000000      0.2483840000000 1.0
P    3       0.7199430000000      0.2682070000000      0.7516160000000 1.0
O    4       0.5072470000000      0.7943050000000      0.7765390000000 1.0
O    4       0.1663280000000      0.6609300000000      0.8854070000000 1.0
O    4       0.1814560000000      0.0000040000000      0.7149150000000 1.0
O    4       0.2497590000000      0.6195690000000      0.5993240000000 1.0
O    4       0.4927530000000      0.7943050000000      0.2234610000000 1.0
O    4       0.8336720000000      0.6609300000000      0.1145930000000 1.0
O    4       0.8185440000000      0.0000040000000      0.2850850000000 1.0
O    4       0.7502410000000      0.6195690000000      0.4006760000000 1.0
O    4       0.5072470000000      0.2943050000000      0.2234610000000 1.0
O    4       0.1663280000000      0.1609300000000      0.1145930000000 1.0
O    4       0.1814560000000      0.5000040000000      0.2850850000000 1.0
O    4       0.2497590000000      0.1195690000000      0.4006760000000 1.0
O    4       0.4927530000000      0.2943050000000      0.7765390000000 1.0
O    4       0.8336720000000      0.1609300000000      0.8854070000000 1.0
O    4       0.8185440000000      0.5000040000000      0.7149150000000 1.0
O    4       0.7502410000000      0.1195690000000      0.5993240000000 1.0
END
