TITL 4LFP-201127-012345-0578f2 -0.001 362.520 -190.5005 0.00 0.00 28 (P1) n - 1
REM ALGO Normal
REM EDIFF 2.8e-05
REM EDIFFG -0.03
REM ENCUT 520
REM ENMAX 520.0
REM GGA Pe
REM IBRION -1
REM ICHARG 0
REM ISIF 3
REM ISMEAR 0
REM ISPIN 2
REM ISTART 1
REM KPOINT_BSE -1 0 0 0
REM LAECHG True
REM LASPH True
REM LCHARG True
REM LDAU True
REM LDAUJ [0.0, 0.0, 0.0, 0.0]
REM LDAUL [0, 2, 0, 0]
REM LDAUPRINT 1
REM LDAUTYPE 2
REM LDAUU [0.0, 4.0, 0.0, 0.0]
REM LMAXMIX 4
REM LORBIT 11
REM LREAL False
REM LVHAR True
REM LWAVE False
REM MAGMOM [-0.0, -0.0, -0.0, -0.0, 3.713, 3.713, 3.698, 3.698, 0.011, 0.011, 0.016, 0.016, 0.034, 0.004, 0.035, 0.064, 0.034, 0.004, 0.035, 0.064, 0.035, 0.034, 0.04, 0.038, 0.035, 0.034, 0.041, 0.038]
REM NELM 200
REM NELMIN 6
REM NSW 0
REM POTIM 0.6
REM PREC Accurate
REM SIGMA 0.05
REM @module pymatgen.io.vasp.inputs
REM @class Incar
REM kpoint grid [[4, 4, 3]]
REM potcar symbols ['Li_sv', 'Fe_pv', 'P', 'O']
REM potcar functional PBE
CELL 1.0 6.120256     6.226290     9.646765     90.000000    90.000000    99.540479   
LATT -1
SFAC Li Fe P O
Li   1       0.2308840000000      0.9716220000000      0.9507930000000 1.0
Li   1       0.7691160000000      0.0283780000000      0.4507930000000 1.0
Li   1       0.4669690000000      0.7336910000000      0.2341980000000 1.0
Li   1       0.5330310000000      0.2663090000000      0.7341980000000 1.0
Fe   2       0.4037110000000      0.1984830000000      0.2215350000000 1.0
Fe   2       0.5962890000000      0.8015170000000      0.7215350000000 1.0
Fe   2       0.1226860000000      0.4053930000000      0.4949410000000 1.0
Fe   2       0.8773140000000      0.5946070000000      0.9949410000000 1.0
P    3       0.6474300000000      0.5163400000000      0.4465490000000 1.0
P    3       0.3525700000000      0.4836600000000      0.9465490000000 1.0
P    3       0.2560080000000      0.9339850000000      0.5055160000000 1.0
P    3       0.7439920000000      0.0660150000000      0.0055160000000 1.0
O    4       0.6142640000000      0.5359290000000      0.6063240000000 1.0
O    4       0.7144690000000      0.7362630000000      0.3751390000000 1.0
O    4       0.8064330000000      0.3511760000000      0.4184250000000 1.0
O    4       0.4135940000000      0.4107670000000      0.3845300000000 1.0
O    4       0.3857360000000      0.4640710000000      0.1063240000000 1.0
O    4       0.2855310000000      0.2637370000000      0.8751390000000 1.0
O    4       0.1935670000000      0.6488240000000      0.9184250000000 1.0
O    4       0.5864060000000      0.5892330000000      0.8845300000000 1.0
O    4       0.3123170000000      0.9380060000000      0.3474420000000 1.0
O    4       0.0845370000000      0.0869060000000      0.5346990000000 1.0
O    4       0.1597970000000      0.7050300000000      0.5568280000000 1.0
O    4       0.4775940000000      0.0128570000000      0.5890920000000 1.0
O    4       0.6876830000000      0.0619940000000      0.8474420000000 1.0
O    4       0.9154630000000      0.9130940000000      0.0346990000000 1.0
O    4       0.8402030000000      0.2949700000000      0.0568280000000 1.0
O    4       0.5224060000000      0.9871430000000      0.0890920000000 1.0
END
