TITL 4LFP-201126-181734-751ac2 -0.009 319.435 -190.0952 0.00 0.00 28 (Pc) n - 1
REM ALGO Normal
REM EDIFF 2.8e-05
REM EDIFFG -0.03
REM ENCUT 520
REM ENMAX 520.0
REM GGA Pe
REM IBRION -1
REM ICHARG 0
REM ISIF 3
REM ISMEAR 0
REM ISPIN 2
REM ISTART 1
REM KPOINT_BSE -1 0 0 0
REM LAECHG True
REM LASPH True
REM LCHARG True
REM LDAU True
REM LDAUJ [0.0, 0.0, 0.0, 0.0]
REM LDAUL [0, 2, 0, 0]
REM LDAUPRINT 1
REM LDAUTYPE 2
REM LDAUU [0.0, 4.0, 0.0, 0.0]
REM LMAXMIX 4
REM LORBIT 11
REM LREAL False
REM LVHAR True
REM LWAVE False
REM MAGMOM [0.0, 0.0, 0.0, 0.0, 3.705, 3.705, 3.721, 3.721, 0.013, 0.013, 0.008, 0.008, 0.027, 0.035, 0.031, 0.028, 0.027, 0.035, 0.031, 0.028, 0.026, 0.044, 0.038, 0.027, 0.026, 0.044, 0.038, 0.027]
REM NELM 200
REM NELMIN 6
REM NSW 0
REM PREC Accurate
REM SIGMA 0.05
REM @module pymatgen.io.vasp.inputs
REM @class Incar
REM kpoint grid [[5, 4, 2]]
REM potcar symbols ['Li_sv', 'Fe_pv', 'P', 'O']
REM potcar functional PBE
CELL 1.0 5.162116     6.248018     9.951539     90.000000    95.599798    90.000000   
LATT -1
SFAC Li Fe P O
Li   1       0.7869140000000      0.4019700000000      0.7469130000000 1.0
Li   1       0.2869140000000      0.5980300000000      0.2469130000000 1.0
Li   1       0.4194860000000      0.0913230000000      0.7005160000000 1.0
Li   1       0.9194860000000      0.9086770000000      0.2005160000000 1.0
Fe   2       0.3174950000000      0.8489610000000      0.9638570000000 1.0
Fe   2       0.8174950000000      0.1510390000000      0.4638570000000 1.0
Fe   2       0.3432790000000      0.6241540000000      0.5812640000000 1.0
Fe   2       0.8432790000000      0.3758460000000      0.0812640000000 1.0
P    3       0.3090340000000      0.3701820000000      0.8834920000000 1.0
P    3       0.8090340000000      0.6298180000000      0.3834920000000 1.0
P    3       0.9050230000000      0.8808630000000      0.7380120000000 1.0
P    3       0.4050230000000      0.1191370000000      0.2380120000000 1.0
O    4       0.0187880000000      0.3944830000000      0.9086610000000 1.0
O    4       0.4734690000000      0.5463020000000      0.9652780000000 1.0
O    4       0.4287480000000      0.1486270000000      0.9176750000000 1.0
O    4       0.3346820000000      0.3917440000000      0.7284290000000 1.0
O    4       0.5187880000000      0.6055170000000      0.4086610000000 1.0
O    4       0.9734690000000      0.4536980000000      0.4652780000000 1.0
O    4       0.9287480000000      0.8513730000000      0.4176750000000 1.0
O    4       0.8346820000000      0.6082560000000      0.2284290000000 1.0
O    4       0.7300130000000      0.6932330000000      0.6858940000000 1.0
O    4       0.9350230000000      0.8930150000000      0.8940140000000 1.0
O    4       0.1886420000000      0.8558350000000      0.6943390000000 1.0
O    4       0.7865100000000      0.0957580000000      0.6738410000000 1.0
O    4       0.2300130000000      0.3067670000000      0.1858940000000 1.0
O    4       0.4350230000000      0.1069850000000      0.3940140000000 1.0
O    4       0.6886420000000      0.1441650000000      0.1943390000000 1.0
O    4       0.2865100000000      0.9042420000000      0.1738410000000 1.0
END
