TITL 4LFP-201126-200254-cf9133 -0.016 334.730 -175.5117 0.00 0.00 28 (P1) n - 1
REM ALGO Normal
REM EDIFF 2.8e-05
REM EDIFFG -0.03
REM ENCUT 520
REM ENMAX 520.0
REM GGA Pe
REM IBRION -1
REM ICHARG 0
REM ISIF 3
REM ISMEAR 0
REM ISPIN 2
REM ISTART 1
REM KPOINT_BSE -1 0 0 0
REM LAECHG True
REM LASPH True
REM LCHARG True
REM LDAU True
REM LDAUJ [0.0, 0.0, 0.0, 0.0]
REM LDAUL [0, 2, 0, 0]
REM LDAUPRINT 1
REM LDAUTYPE 2
REM LDAUU [0.0, 4.0, 0.0, 0.0]
REM LMAXMIX 4
REM LORBIT 11
REM LREAL False
REM LVHAR True
REM LWAVE False
REM MAGMOM [0.001, 0.001, 0.001, 0.001, 3.692, 3.692, 3.694, 3.694, 0.007, 0.007, 0.007, 0.007, 0.033, 0.033, 0.055, 0.056, 0.032, 0.032, 0.055, 0.055, 0.033, 0.033, 0.055, 0.056, 0.032, 0.032, 0.055, 0.055]
REM NELM 200
REM NELMIN 6
REM NSW 0
REM PREC Accurate
REM SIGMA 0.05
REM @module pymatgen.io.vasp.inputs
REM @class Incar
REM kpoint grid [[5, 5, 2]]
REM potcar symbols ['Li_sv', 'Fe_pv', 'P', 'O']
REM potcar functional PBE
CELL 1.0 5.406171     5.878203     11.764285    90.000000    116.446000   90.000000   
LATT -1
SFAC Li Fe P O
Li   1       0.2070060000000      0.1658120000000      0.7497480000000 1.0
Li   1       0.7929940000000      0.6658120000000      0.7502520000000 1.0
Li   1       0.7929940000000      0.8341880000000      0.2502520000000 1.0
Li   1       0.2070060000000      0.3341880000000      0.2497480000000 1.0
Fe   2       0.0000000000000      0.0000000000000      0.0000000000000 1.0
Fe   2       0.0000000000000      0.5000000000000      0.5000000000000 1.0
Fe   2       0.5000000000000      0.5000000000000      0.0000000000000 1.0
Fe   2       0.5000000000000      0.0000000000000      0.5000000000000 1.0
P    3       0.5000000000000      0.0000000000000      0.0000000000000 1.0
P    3       0.5000000000000      0.5000000000000      0.5000000000000 1.0
P    3       0.0000000000000      0.5000000000000      0.0000000000000 1.0
P    3       0.0000000000000      0.0000000000000      0.5000000000000 1.0
O    4       0.0879200000000      0.4940950000000      0.8864890000000 1.0
O    4       0.8086360000000      0.4930190000000      0.6129990000000 1.0
O    4       0.7462700000000      0.6811520000000      0.9153700000000 1.0
O    4       0.5873670000000      0.1812850000000      0.9148030000000 1.0
O    4       0.9120800000000      0.9940950000000      0.6135110000000 1.0
O    4       0.1913640000000      0.9930190000000      0.8870010000000 1.0
O    4       0.2537300000000      0.1811520000000      0.5846300000000 1.0
O    4       0.4126330000000      0.6812850000000      0.5851970000000 1.0
O    4       0.9120800000000      0.5059050000000      0.1135110000000 1.0
O    4       0.1913640000000      0.5069810000000      0.3870010000000 1.0
O    4       0.2537300000000      0.3188480000000      0.0846300000000 1.0
O    4       0.4126330000000      0.8187150000000      0.0851970000000 1.0
O    4       0.0879200000000      0.0059050000000      0.3864890000000 1.0
O    4       0.8086360000000      0.0069810000000      0.1129990000000 1.0
O    4       0.7462700000000      0.8188480000000      0.4153700000000 1.0
O    4       0.5873670000000      0.3187150000000      0.4148030000000 1.0
END
