TITL 4LFP-201126-221640-fd8e23 -0.014 397.457 -188.4040 0.00 0.00 28 (C2) n - 1
REM ALGO Normal
REM EDIFF 2.8e-05
REM EDIFFG -0.03
REM ENCUT 520
REM ENMAX 520.0
REM GGA Pe
REM IBRION -1
REM ICHARG 0
REM ISIF 3
REM ISMEAR 0
REM ISPIN 2
REM ISTART 1
REM KPOINT_BSE -1 0 0 0
REM LAECHG True
REM LASPH True
REM LCHARG True
REM LDAU True
REM LDAUJ [0.0, 0.0, 0.0, 0.0]
REM LDAUL [0, 2, 0, 0]
REM LDAUPRINT 1
REM LDAUTYPE 2
REM LDAUU [0.0, 4.0, 0.0, 0.0]
REM LMAXMIX 4
REM LORBIT 11
REM LREAL False
REM LVHAR True
REM LWAVE False
REM MAGMOM [0.0, 0.0, 0.001, -0.001, 3.718, 3.688, 3.687, 3.739, 0.009, 0.009, 0.006, 0.005, 0.037, 0.023, 0.041, 0.036, 0.037, 0.023, 0.041, 0.037, 0.058, 0.026, 0.047, 0.048, 0.058, 0.026, 0.047, 0.048]
REM NELM 200
REM NELMIN 6
REM NSW 0
REM PREC Accurate
REM SIGMA 0.05
REM @module pymatgen.io.vasp.inputs
REM @class Incar
REM kpoint grid [[5, 3, 3]]
REM potcar symbols ['Li_sv', 'Fe_pv', 'P', 'O']
REM potcar functional PBE
CELL 1.0 5.293594     9.301209     9.989431     62.253984    79.056090    65.933893   
LATT -1
SFAC Li Fe P O
Li   1       0.5390360000000      0.0765940000000      0.4001960000000 1.0
Li   1       0.4609640000000      0.5232100000000      0.4001960000000 1.0
Li   1       0.5000000000000      0.4267010000000      0.1465990000000 1.0
Li   1       0.5000000000000      0.5989620000000      0.8020760000000 1.0
Fe   2       0.0000000000000      0.1350260000000      0.7299480000000 1.0
Fe   2       0.0000000000000      0.8648440000000      0.2703130000000 1.0
Fe   2       0.0000000000000      0.5626220000000      0.8747570000000 1.0
Fe   2       0.5000000000000      0.0193650000000      0.9612720000000 1.0
P    3       0.8216440000000      0.2087770000000      0.0474690000000 1.0
P    3       0.1783560000000      0.7437540000000      0.0474690000000 1.0
P    3       0.0000000000000      0.7134760000000      0.5730490000000 1.0
P    3       0.5000000000000      0.1775450000000      0.6449100000000 1.0
O    4       0.7203620000000      0.1952140000000      0.9201340000000 1.0
O    4       0.6244350000000      0.1781640000000      0.1861310000000 1.0
O    4       0.1206170000000      0.0712780000000      0.1036040000000 1.0
O    4       0.8045400000000      0.4008380000000      0.9933740000000 1.0
O    4       0.2796380000000      0.8846520000000      0.9201340000000 1.0
O    4       0.3755650000000      0.6357050000000      0.1861310000000 1.0
O    4       0.8793830000000      0.8251200000000      0.1036040000000 1.0
O    4       0.1954600000000      0.6057880000000      0.9933740000000 1.0
O    4       0.7339670000000      0.0110090000000      0.7558060000000 1.0
O    4       0.6489540000000      0.3062410000000      0.5506780000000 1.0
O    4       0.2256790000000      0.6612390000000      0.6822460000000 1.0
O    4       0.8932720000000      0.9110330000000      0.4607350000000 1.0
O    4       0.2660330000000      0.2331850000000      0.7558060000000 1.0
O    4       0.3510460000000      0.1430820000000      0.5506780000000 1.0
O    4       0.7743210000000      0.6565130000000      0.6822460000000 1.0
O    4       0.1067280000000      0.6282320000000      0.4607350000000 1.0
END
