TITL 4LFP-201126-220640-809d11 -0.010 323.088 -189.4404 0.00 0.00 28 (P-1) n - 1
REM ALGO Normal
REM EDIFF 2.8e-05
REM EDIFFG -0.03
REM ENCUT 520
REM ENMAX 520.0
REM GGA Pe
REM IBRION -1
REM ICHARG 0
REM ISIF 3
REM ISMEAR 0
REM ISPIN 2
REM ISTART 1
REM KPOINT_BSE -1 0 0 0
REM LAECHG True
REM LASPH True
REM LCHARG True
REM LDAU True
REM LDAUJ [0.0, 0.0, 0.0, 0.0]
REM LDAUL [0, 2, 0, 0]
REM LDAUPRINT 1
REM LDAUTYPE 2
REM LDAUU [0.0, 4.0, 0.0, 0.0]
REM LMAXMIX 4
REM LORBIT 11
REM LREAL False
REM LVHAR True
REM LWAVE False
REM MAGMOM [0.0, 0.0, 0.001, 0.0, 3.728, 3.728, 3.721, 3.721, 0.009, 0.009, 0.013, 0.013, 0.018, 0.038, 0.036, 0.041, 0.018, 0.038, 0.036, 0.041, 0.019, 0.034, 0.03, 0.043, 0.019, 0.034, 0.03, 0.043]
REM NELM 200
REM NELMIN 6
REM NSW 0
REM PREC Accurate
REM SIGMA 0.05
REM @module pymatgen.io.vasp.inputs
REM @class Incar
REM kpoint grid [[5, 3, 3]]
REM potcar symbols ['Li_sv', 'Fe_pv', 'P', 'O']
REM potcar functional PBE
CELL 1.0 5.281529     8.956219     7.681825     106.540192   96.856876    107.790440  
LATT -1
SFAC Li Fe P O
Li   1       0.4761000000000      0.3234400000000      0.5553330000000 1.0
Li   1       0.5239000000000      0.6765600000000      0.4446670000000 1.0
Li   1       0.5000000000000      0.0000000000000      0.5000000000000 1.0
Li   1       0.0000000000000      0.0000000000000      0.5000000000000 1.0
Fe   2       0.9945530000000      0.2435210000000      0.2381280000000 1.0
Fe   2       0.0054470000000      0.7564790000000      0.7618720000000 1.0
Fe   2       0.5621340000000      0.2696020000000      0.9269530000000 1.0
Fe   2       0.4378660000000      0.7303980000000      0.0730470000000 1.0
P    3       0.3665500000000      0.0568130000000      0.2025010000000 1.0
P    3       0.6334500000000      0.9431870000000      0.7974990000000 1.0
P    3       0.0823410000000      0.3929300000000      0.6995520000000 1.0
P    3       0.9176590000000      0.6070700000000      0.3004480000000 1.0
O    4       0.2441920000000      0.0833730000000      0.3789230000000 1.0
O    4       0.3492630000000      0.2006270000000      0.1330520000000 1.0
O    4       0.6589890000000      0.0607190000000      0.2749410000000 1.0
O    4       0.2126970000000      0.8836490000000      0.0521220000000 1.0
O    4       0.7558080000000      0.9166270000000      0.6210770000000 1.0
O    4       0.6507370000000      0.7993730000000      0.8669480000000 1.0
O    4       0.3410110000000      0.9392810000000      0.7250590000000 1.0
O    4       0.7873030000000      0.1163510000000      0.9478780000000 1.0
O    4       0.7802450000000      0.2825060000000      0.6698560000000 1.0
O    4       0.2844580000000      0.3224530000000      0.7834120000000 1.0
O    4       0.1662750000000      0.4005290000000      0.5120380000000 1.0
O    4       0.1257640000000      0.5710440000000      0.8323390000000 1.0
O    4       0.2197550000000      0.7174940000000      0.3301440000000 1.0
O    4       0.7155420000000      0.6775470000000      0.2165880000000 1.0
O    4       0.8337250000000      0.5994710000000      0.4879620000000 1.0
O    4       0.8742360000000      0.4289560000000      0.1676610000000 1.0
END
