TITL 4LFP-201126-214600-bcfbd8 0.040 348.657 -190.6979 0.00 0.00 28 (P-1) n - 1
REM ALGO Normal
REM EDIFF 2.8e-05
REM EDIFFG -0.03
REM ENCUT 520
REM ENMAX 520.0
REM GGA Pe
REM IBRION -1
REM ICHARG 0
REM ISIF 3
REM ISMEAR 0
REM ISPIN 2
REM ISTART 1
REM KPOINT_BSE -1 0 0 0
REM LAECHG True
REM LASPH True
REM LCHARG True
REM LDAU True
REM LDAUJ [0.0, 0.0, 0.0, 0.0]
REM LDAUL [0, 2, 0, 0]
REM LDAUPRINT 1
REM LDAUTYPE 2
REM LDAUU [0.0, 4.0, 0.0, 0.0]
REM LMAXMIX 4
REM LORBIT 11
REM LREAL False
REM LVHAR True
REM LWAVE False
REM MAGMOM [0.0, 0.0, 0.001, 0.001, 3.731, 3.731, 3.708, 3.708, 0.008, 0.008, 0.007, 0.007, 0.031, 0.034, 0.049, 0.029, 0.031, 0.034, 0.049, 0.029, 0.021, 0.044, 0.037, 0.027, 0.021, 0.044, 0.037, 0.027]
REM NELM 200
REM NELMIN 6
REM NSW 0
REM PREC Accurate
REM SIGMA 0.05
REM @module pymatgen.io.vasp.inputs
REM @class Incar
REM kpoint grid [[4, 4, 3]]
REM potcar symbols ['Li_sv', 'Fe_pv', 'P', 'O']
REM potcar functional PBE
CELL 1.0 7.366877     7.133903     7.804251     75.524450    64.699914    95.862732   
LATT -1
SFAC Li Fe P O
Li   1       0.5596650000000      0.2731510000000      0.9901430000000 1.0
Li   1       0.4403350000000      0.7268490000000      0.0098570000000 1.0
Li   1       0.2747230000000      0.6709900000000      0.4532050000000 1.0
Li   1       0.7252770000000      0.3290100000000      0.5467950000000 1.0
Fe   2       0.7493900000000      0.7724710000000      0.5082290000000 1.0
Fe   2       0.2506100000000      0.2275290000000      0.4917710000000 1.0
Fe   2       0.9396190000000      0.2453040000000      0.0186690000000 1.0
Fe   2       0.0603810000000      0.7546960000000      0.9813310000000 1.0
P    3       0.8457580000000      0.0229370000000      0.7674650000000 1.0
P    3       0.1542420000000      0.9770630000000      0.2325350000000 1.0
P    3       0.3566090000000      0.5118640000000      0.7587800000000 1.0
P    3       0.6433910000000      0.4881360000000      0.2412200000000 1.0
O    4       0.6973160000000      0.8596670000000      0.7597750000000 1.0
O    4       0.7340770000000      0.0796500000000      0.9596400000000 1.0
O    4       0.0443700000000      0.9541740000000      0.7628250000000 1.0
O    4       0.9339150000000      0.2107570000000      0.5774050000000 1.0
O    4       0.3026840000000      0.1403330000000      0.2402250000000 1.0
O    4       0.2659230000000      0.9203500000000      0.0403600000000 1.0
O    4       0.9556300000000      0.0458260000000      0.2371750000000 1.0
O    4       0.0660850000000      0.7892430000000      0.4225950000000 1.0
O    4       0.5481200000000      0.4350890000000      0.7513030000000 1.0
O    4       0.2015550000000      0.3672620000000      0.7326900000000 1.0
O    4       0.2295210000000      0.5413160000000      0.9655990000000 1.0
O    4       0.4353830000000      0.7132010000000      0.5853810000000 1.0
O    4       0.4518800000000      0.5649110000000      0.2486970000000 1.0
O    4       0.7984450000000      0.6327380000000      0.2673100000000 1.0
O    4       0.7704790000000      0.4586840000000      0.0344010000000 1.0
O    4       0.5646170000000      0.2867990000000      0.4146190000000 1.0
END
