TITL 4LFP-201126-194122-6a9914 0.050 301.893 -190.3881 0.00 0.00 28 (P-1) n - 1
REM ALGO Normal
REM EDIFF 2.8e-05
REM EDIFFG -0.03
REM ENCUT 520
REM ENMAX 520.0
REM GGA Pe
REM IBRION -1
REM ICHARG 0
REM ISIF 3
REM ISMEAR 0
REM ISPIN 2
REM ISTART 1
REM KPOINT_BSE -1 0 0 0
REM LAECHG True
REM LASPH True
REM LCHARG True
REM LDAU True
REM LDAUJ [0.0, 0.0, 0.0, 0.0]
REM LDAUL [0, 2, 0, 0]
REM LDAUPRINT 1
REM LDAUTYPE 2
REM LDAUU [0.0, 4.0, 0.0, 0.0]
REM LMAXMIX 4
REM LORBIT 11
REM LREAL False
REM LVHAR True
REM LWAVE False
REM MAGMOM [0.0, 0.0, 0.0, 0.0, 3.722, 3.722, 3.723, 3.723, 0.008, 0.008, 0.01, 0.01, 0.034, 0.003, 0.022, 0.035, 0.034, 0.003, 0.022, 0.035, 0.041, 0.046, 0.037, 0.04, 0.041, 0.046, 0.037, 0.04]
REM NELM 200
REM NELMIN 6
REM NSW 0
REM PREC Accurate
REM SIGMA 0.05
REM @module pymatgen.io.vasp.inputs
REM @class Incar
REM kpoint grid [[5, 4, 3]]
REM potcar symbols ['Li_sv', 'Fe_pv', 'P', 'O']
REM potcar functional PBE
CELL 1.0 5.474367     6.296526     9.322119     75.499057    82.843531    76.622669   
LATT -1
SFAC Li Fe P O
Li   1       0.6630080000000      0.5818130000000      0.1948810000000 1.0
Li   1       0.3369920000000      0.4181870000000      0.8051190000000 1.0
Li   1       0.6980330000000      0.8493020000000      0.9332690000000 1.0
Li   1       0.3019670000000      0.1506980000000      0.0667310000000 1.0
Fe   2       0.8301550000000      0.9981760000000      0.2608340000000 1.0
Fe   2       0.1698450000000      0.0018240000000      0.7391660000000 1.0
Fe   2       0.7847160000000      0.6504780000000      0.6142250000000 1.0
Fe   2       0.2152840000000      0.3495220000000      0.3857750000000 1.0
P    3       0.1955830000000      0.6840060000000      0.0609660000000 1.0
P    3       0.8044170000000      0.3159940000000      0.9390340000000 1.0
P    3       0.6798980000000      0.1855210000000      0.5639250000000 1.0
P    3       0.3201020000000      0.8144790000000      0.4360750000000 1.0
O    4       0.1798650000000      0.6906620000000      0.8940670000000 1.0
O    4       0.3897870000000      0.8181420000000      0.0767850000000 1.0
O    4       0.9230060000000      0.7869650000000      0.1184590000000 1.0
O    4       0.2730600000000      0.4393830000000      0.1548070000000 1.0
O    4       0.8201350000000      0.3093380000000      0.1059330000000 1.0
O    4       0.6102130000000      0.1818580000000      0.9232150000000 1.0
O    4       0.0769940000000      0.2130350000000      0.8815410000000 1.0
O    4       0.7269400000000      0.5606170000000      0.8451930000000 1.0
O    4       0.6276600000000      0.1928190000000      0.4021160000000 1.0
O    4       0.8654080000000      0.3427800000000      0.5608870000000 1.0
O    4       0.4150110000000      0.2558140000000      0.6398880000000 1.0
O    4       0.8243920000000      0.9524980000000      0.6478570000000 1.0
O    4       0.3723400000000      0.8071810000000      0.5978840000000 1.0
O    4       0.1345920000000      0.6572200000000      0.4391130000000 1.0
O    4       0.5849890000000      0.7441860000000      0.3601120000000 1.0
O    4       0.1756080000000      0.0475020000000      0.3521430000000 1.0
END
