TITL 4LFP-201126-144743-3743bf 0.051 329.717 -190.2723 0.00 0.00 28 (C2) n - 1
REM ALGO Normal
REM EDIFF 2.8e-05
REM EDIFFG -0.03
REM ENCUT 520
REM ENMAX 520.0
REM GGA Pe
REM IBRION -1
REM ICHARG 0
REM ISIF 3
REM ISMEAR 0
REM ISPIN 2
REM ISTART 1
REM KPOINT_BSE -1 0 0 0
REM LAECHG True
REM LASPH True
REM LCHARG True
REM LDAU True
REM LDAUJ [0.0, 0.0, 0.0, 0.0]
REM LDAUL [0, 2, 0, 0]
REM LDAUPRINT 1
REM LDAUTYPE 2
REM LDAUU [0.0, 4.0, 0.0, 0.0]
REM LMAXMIX 4
REM LORBIT 11
REM LREAL False
REM LVHAR True
REM LWAVE False
REM MAGMOM [-0.0, -0.0, 0.001, 0.001, 3.738, 3.738, 3.695, 3.695, 0.013, 0.013, 0.011, 0.011, 0.028, 0.046, 0.03, 0.034, 0.028, 0.046, 0.029, 0.034, 0.039, 0.005, 0.039, 0.053, 0.039, 0.005, 0.039, 0.053]
REM NELM 200
REM NELMIN 6
REM NSW 0
REM PREC Accurate
REM SIGMA 0.05
REM @module pymatgen.io.vasp.inputs
REM @class Incar
REM kpoint grid [[6, 4, 2]]
REM potcar symbols ['Li_sv', 'Fe_pv', 'P', 'O']
REM potcar functional PBE
CELL 1.0 5.046251     7.092887     10.324024    110.091107   107.036196   90.000000   
LATT -1
SFAC Li Fe P O
Li   1       0.8426730000000      0.9316880000000      0.2230660000000 1.0
Li   1       0.1573250000000      0.7086210000000      0.7769320000000 1.0
Li   1       0.2538930000000      0.0538630000000      0.0910970000000 1.0
Li   1       0.7461050000000      0.9627640000000      0.9089010000000 1.0
Fe   2       0.0217230000000      0.2385030000000      0.5076420000000 1.0
Fe   2       0.9782750000000      0.7308600000000      0.4923560000000 1.0
Fe   2       0.7012820000000      0.4030020000000      0.8822820000000 1.0
Fe   2       0.2987160000000      0.5207190000000      0.1177160000000 1.0
P    3       0.5640920000000      0.5748710000000      0.6690620000000 1.0
P    3       0.4359060000000      0.9058080000000      0.3309360000000 1.0
P    3       0.1821400000000      0.1284280000000      0.8070600000000 1.0
P    3       0.8178580000000      0.3213670000000      0.1929380000000 1.0
O    4       0.3585340000000      0.7179790000000      0.6254920000000 1.0
O    4       0.4175120000000      0.3621240000000      0.6297720000000 1.0
O    4       0.8272810000000      0.5652230000000      0.6202780000000 1.0
O    4       0.6614430000000      0.6631280000000      0.8438270000000 1.0
O    4       0.6414640000000      0.0924860000000      0.3745060000000 1.0
O    4       0.5824860000000      0.7323510000000      0.3702260000000 1.0
O    4       0.1727170000000      0.9449450000000      0.3797200000000 1.0
O    4       0.3385550000000      0.8193000000000      0.1561710000000 1.0
O    4       0.0231530000000      0.0563070000000      0.6433700000000 1.0
O    4       0.1048330000000      0.9807520000000      0.8755280000000 1.0
O    4       0.5049720000000      0.1410480000000      0.8403570000000 1.0
O    4       0.1151860000000      0.3493430000000      0.8848520000000 1.0
O    4       0.9768450000000      0.4129350000000      0.3566280000000 1.0
O    4       0.8951650000000      0.1052230000000      0.1244700000000 1.0
O    4       0.4950260000000      0.3006900000000      0.1596410000000 1.0
O    4       0.8848120000000      0.4644890000000      0.1151460000000 1.0
END
