TITL 4LFP-201127-012020-107264 -0.034 300.662 -192.0405 0.00 0.00 28 (P1) n - 1
REM ALGO Normal
REM EDIFF 2.8e-06
REM EDIFFG -0.03
REM ENCUT 520
REM ENMAX 520.0
REM GGA Pe
REM IBRION -1
REM ICHARG 0
REM ISIF 3
REM ISMEAR 0
REM ISPIN 2
REM ISTART 1
REM KPOINT_BSE -1 0 0 0
REM LAECHG True
REM LASPH True
REM LCHARG True
REM LDAU True
REM LDAUJ [0.0, 0.0, 0.0, 0.0]
REM LDAUL [0, 2, 0, 0]
REM LDAUPRINT 1
REM LDAUTYPE 2
REM LDAUU [0.0, 4.0, 0.0, 0.0]
REM LMAXMIX 4
REM LORBIT 11
REM LREAL False
REM LVHAR True
REM LWAVE False
REM MAGMOM [0.0, 0.0, 0.0, 0.0, 3.731, 3.731, 3.731, 3.731, 0.009, 0.009, 0.009, 0.009, 0.046, 0.046, 0.02, 0.027, 0.046, 0.046, 0.02, 0.027, 0.046, 0.046, 0.02, 0.027, 0.046, 0.046, 0.02, 0.027]
REM NCORE 10
REM NELM 200
REM NELMIN 6
REM NSW 0
REM PREC Accurate
REM SIGMA 0.05
REM @module pymatgen.io.vasp.inputs
REM @class Incar
REM kpoint grid [[6, 4, 2]]
REM potcar symbols ['Li_sv', 'Fe_pv', 'P', 'O']
REM potcar functional PBE
CELL 1.0 4.745610     6.070324     10.436991    90.000000    90.000000    90.000000   
LATT -1
SFAC Li Fe P O
Li   1       0.7505400000000      0.9971870000000      0.5004330000000 1.0
Li   1       0.2494610000000      0.5028130000000      0.0004330000000 1.0
Li   1       0.2505400000000      0.0028130000000      0.9995670000000 1.0
Li   1       0.7494600000000      0.4971870000000      0.4995670000000 1.0
Fe   2       0.7243580000000      0.2515390000000      0.7811010000000 1.0
Fe   2       0.2756420000000      0.2484610000000      0.2811010000000 1.0
Fe   2       0.2243580000000      0.7484610000000      0.7188990000000 1.0
Fe   2       0.7756420000000      0.7515390000000      0.2188990000000 1.0
P    3       0.3321070000000      0.7474830000000      0.4061280000000 1.0
P    3       0.6678940000000      0.7525170000000      0.9061280000000 1.0
P    3       0.8321060000000      0.2525170000000      0.0938720000000 1.0
P    3       0.1678940000000      0.2474830000000      0.5938720000000 1.0
O    4       0.4651290000000      0.5437480000000      0.3352970000000 1.0
O    4       0.4646740000000      0.9507050000000      0.3344170000000 1.0
O    4       0.0081300000000      0.7480670000000      0.4044170000000 1.0
O    4       0.4585990000000      0.7477060000000      0.5435910000000 1.0
O    4       0.5348710000000      0.9562520000000      0.8352970000000 1.0
O    4       0.5353260000000      0.5492950000000      0.8344170000000 1.0
O    4       0.9918700000000      0.7519330000000      0.9044170000000 1.0
O    4       0.5414010000000      0.7522940000000      0.0435910000000 1.0
O    4       0.9651290000000      0.4562520000000      0.1647030000000 1.0
O    4       0.9646740000000      0.0492950000000      0.1655830000000 1.0
O    4       0.5081300000000      0.2519330000000      0.0955830000000 1.0
O    4       0.9585990000000      0.2522940000000      0.9564090000000 1.0
O    4       0.0348710000000      0.0437480000000      0.6647030000000 1.0
O    4       0.0353260000000      0.4507050000000      0.6655830000000 1.0
O    4       0.4918700000000      0.2480670000000      0.5955830000000 1.0
O    4       0.0414010000000      0.2477060000000      0.4564090000000 1.0
END
