TITL 4LFP-201126-070007-4f59b7 -0.010 327.545 -189.4975 0.00 0.00 28 (Pbcm) n - 1
REM ALGO Normal
REM EDIFF 2.8e-05
REM EDIFFG -0.03
REM ENCUT 520
REM ENMAX 520.0
REM GGA Pe
REM IBRION -1
REM ICHARG 0
REM ISIF 3
REM ISMEAR 0
REM ISPIN 2
REM ISTART 1
REM KPOINT_BSE -1 0 0 0
REM LAECHG True
REM LASPH True
REM LCHARG True
REM LDAU True
REM LDAUJ [0.0, 0.0, 0.0, 0.0]
REM LDAUL [0, 2, 0, 0]
REM LDAUPRINT 1
REM LDAUTYPE 2
REM LDAUU [0.0, 4.0, 0.0, 0.0]
REM LMAXMIX 4
REM LORBIT 11
REM LREAL False
REM LVHAR True
REM LWAVE False
REM MAGMOM [0.0, 0.0, 0.0, 0.0, 3.723, 3.723, 3.723, 3.723, 0.012, 0.012, 0.012, 0.012, 0.033, 0.037, 0.035, 0.035, 0.033, 0.037, 0.035, 0.035, 0.033, 0.037, 0.035, 0.035, 0.033, 0.037, 0.035, 0.035]
REM NELM 200
REM NELMIN 6
REM NSW 0
REM PREC Accurate
REM SIGMA 0.05
REM @module pymatgen.io.vasp.inputs
REM @class Incar
REM kpoint grid [[4, 5, 2]]
REM potcar symbols ['Li_sv', 'Fe_pv', 'P', 'O']
REM potcar functional PBE
CELL 1.0 6.447244     5.788384     10.886092    90.000000    126.269353   90.000000   
LATT -1
SFAC Li Fe P O
Li   1       0.0710690000000      0.7843990000000      0.8208280000000 1.0
Li   1       0.4289310000000      0.7843990000000      0.6791720000000 1.0
Li   1       0.9289310000000      0.2156010000000      0.1791720000000 1.0
Li   1       0.5710690000000      0.2156010000000      0.3208280000000 1.0
Fe   2       0.2765000000000      0.2508410000000      0.5261720000000 1.0
Fe   2       0.2235000000000      0.2508410000000      0.9738280000000 1.0
Fe   2       0.7235000000000      0.7491590000000      0.4738280000000 1.0
Fe   2       0.7765000000000      0.7491590000000      0.0261720000000 1.0
P    3       0.3664410000000      0.7149380000000      0.1162690000000 1.0
P    3       0.1335590000000      0.7149380000000      0.3837310000000 1.0
P    3       0.6335590000000      0.2850620000000      0.8837310000000 1.0
P    3       0.8664410000000      0.2850620000000      0.6162690000000 1.0
O    4       0.4195930000000      0.4584900000000      0.1699300000000 1.0
O    4       0.5058330000000      0.8799900000000      0.2556890000000 1.0
O    4       0.4460390000000      0.7603330000000      0.0083280000000 1.0
O    4       0.0712310000000      0.7608890000000      0.0082990000000 1.0
O    4       0.0804070000000      0.4584900000000      0.3300700000000 1.0
O    4       0.9941670000000      0.8799900000000      0.2443110000000 1.0
O    4       0.0539610000000      0.7603330000000      0.4916720000000 1.0
O    4       0.4287690000000      0.7608890000000      0.4917010000000 1.0
O    4       0.5804070000000      0.5415100000000      0.8300700000000 1.0
O    4       0.4941670000000      0.1200100000000      0.7443110000000 1.0
O    4       0.5539610000000      0.2396670000000      0.9916720000000 1.0
O    4       0.9287690000000      0.2391110000000      0.9917010000000 1.0
O    4       0.9195930000000      0.5415100000000      0.6699300000000 1.0
O    4       0.0058330000000      0.1200100000000      0.7556890000000 1.0
O    4       0.9460390000000      0.2396670000000      0.5083280000000 1.0
O    4       0.5712310000000      0.2391110000000      0.5082990000000 1.0
END
