TITL LiN2-230326-192153-b3805a 0.0406 58.194770 -1.48594201E+003 0 0  6 (C2/m) n - 1
REM
REM Run started: Sun, 26 Mar 2023 19:25:54 +0100 in /scratch/scratch/uccabz1/launch_tmp_michael/launcher_2023-03-26-18-21-53-825092
REM CASTEP 21.1 from code version cdfb9687+ bz-changes Mon Jan 4 11:18:28 2021 +0000
REM Functional Perdew Burke Ernzerhof Relativity Koelling-Harmon Dispersion off
REM Cut-off 340.0000 eV Grid scale 1.7500 Gmax 16.5316 1/A FBSC none
REM MP grid 4 7 4 Offset 0.000 0.000 0.000 No. kpts 56 Spacing 0.07
REM Total runtime: 257.02 s
REM Overall efficiency: 80 %
REM
REM LiN2.cell (b953e92e767f3f2c67521e63ea917690)
REM ## AIRSS Version 0.9.3 July 2022 commit v0.9.3-8-ga1e635fa32177e30cc
REM compiler GCC version 4.9.2
REM options -cpp -iprefix /scratch/UCL/applications/gcc/4.9.2/bin/../lib/gcc/x86_64-unknown-linux-gnu/4.9.2/ -mtune=corei7 -march=x86-64 -g -Og
REM COMMAND_LINE
REM seed 844579788 -1053188725 63689260 543290933 -1572152387 432263777 -1608290623 -1546731146 -1574595477 1487064349 1123587431 -252793275
REM
REM N 2|1.4|13|15|17|20:21(qc=5)
REM Li 1|1.3|8|9|10|10U:20(qc=5)
REM 
CELL 1.54180    5.16264    2.97228    5.22773  124.84553   67.24423   90.30934
LATT -1
SFAC Li N  
Li     1 -0.2502367455955 -0.0016647267703 -0.2524141515772 1.0
Li     1  0.2502367455955  0.0016647267703  0.2524141515772 1.0
N      2 -0.2993392637809 -0.1009824361188  0.1492605429071 1.0
N      2  0.2993392637809  0.1009824361188 -0.1492605429071 1.0
N      2 -0.1991783959751  0.1002158727712  0.3482895614489 1.0
N      2  0.1991783959751 -0.1002158727712 -0.3482895614489 1.0
END
