TITL LiN2-230326-183839-3cf2fd 0.0007 125.762825 -2.97170217E+003 0 0  12 (Pnma) n - 1
REM
REM Run started: Sun, 26 Mar 2023 18:40:20 +0100 in /scratch/scratch/uccabz1/launch_tmp_michael/launcher_2023-03-26-17-38-39-451357
REM CASTEP 21.1 from code version cdfb9687+ bz-changes Mon Jan 4 11:18:28 2021 +0000
REM Functional Perdew Burke Ernzerhof Relativity Koelling-Harmon Dispersion off
REM Cut-off 340.0000 eV Grid scale 1.7500 Gmax 16.5316 1/A FBSC none
REM MP grid 5 4 2 Offset 0.000 0.000 0.000 No. kpts 6 Spacing 0.07
REM Total runtime: 119.43 s
REM Overall efficiency: 53.8333 %
REM
REM LiN2.cell (b953e92e767f3f2c67521e63ea917690)
REM ## AIRSS Version 0.9.3 July 2022 commit v0.9.3-8-ga1e635fa32177e30cc
REM compiler GCC version 4.9.2
REM options -cpp -iprefix /scratch/UCL/applications/gcc/4.9.2/bin/../lib/gcc/x86_64-unknown-linux-gnu/4.9.2/ -mtune=corei7 -march=x86-64 -g -Og
REM COMMAND_LINE
REM seed 557813896 -769988488 1132302304 633740704 -1749136823 1013327445 -1000407614 1997886734 -946222744 1875263889 -515923216 -632480293
REM
REM N 2|1.4|13|15|17|20:21(qc=5)
REM Li 1|1.3|8|9|10|10U:20(qc=5)
REM 
CELL 1.54180    2.94085    4.23554   10.09649   90.00000   90.00000   90.00000
LATT -1
SFAC Li N  
Li     1 -0.2800467458320  0.5203702547391 -0.1133165031010 1.0
Li     1  0.2800467458320  0.0203702547391  0.1133165031010 1.0
Li     1  0.2199532541680  0.5203702547391 -0.3866834968990 1.0
Li     1 -0.2199532541680  0.0203702547391  0.3866834968990 1.0
N      2  0.2710458382833  0.3791164121466  0.3710004849771 1.0
N      2 -0.2710458382833 -0.1208835878534 -0.3710004849771 1.0
N      2 -0.2289541617167  0.3791164121466  0.1289995150229 1.0
N      2  0.2289541617167 -0.1208835878534 -0.1289995150229 1.0
N      2  0.2710315491991 -0.3400029668857  0.3710600423868 1.0
N      2 -0.2710315491991  0.1599970331143 -0.3710600423868 1.0
N      2 -0.2289684508009 -0.3400029668857  0.1289399576132 1.0
N      2  0.2289684508009  0.1599970331143 -0.1289399576132 1.0
END
