TITL LiN2-230326-153801-14bd91 -0.0201 73.704850 -1.48564028E+003 0 0  6 (Pmmm) n - 1
REM
REM Run started: Sun, 26 Mar 2023 15:40:18 +0100 in /scratch/scratch/uccabz1/launch_tmp_michael/launcher_2023-03-26-14-38-01-523680
REM CASTEP 21.1 from code version cdfb9687+ bz-changes Mon Jan 4 11:18:28 2021 +0000
REM Functional Perdew Burke Ernzerhof Relativity Koelling-Harmon Dispersion off
REM Cut-off 340.0000 eV Grid scale 1.7500 Gmax 16.5316 1/A FBSC none
REM MP grid 6 3 5 Offset 0.000 0.000 0.000 No. kpts 24 Spacing 0.07
REM Total runtime: 149.93 s
REM Overall efficiency: 61.5714 %
REM
REM LiN2.cell (b953e92e767f3f2c67521e63ea917690)
REM ## AIRSS Version 0.9.3 July 2022 commit v0.9.3-8-ga1e635fa32177e30cc
REM compiler GCC version 4.9.2
REM options -cpp -iprefix /scratch/UCL/applications/gcc/4.9.2/bin/../lib/gcc/x86_64-unknown-linux-gnu/4.9.2/ -mtune=corei7 -march=x86-64 -g -Og
REM COMMAND_LINE
REM seed -110330022 607468055 -1363881691 -850615279 -1076471920 221468442 1856894590 -2099735014 212449803 -682231886 -1637210642 -234022273
REM
REM N 2|1.4|13|15|17|20:21(qc=5)
REM Li 1|1.3|8|9|10|10U:20(qc=5)
REM 
CELL 1.54180    2.72660    8.44948    5.29938  142.86478   90.00000   90.00000
LATT -1
SFAC Li N  
Li     1  0.0477653000000  0.5000000000000 -0.5000000000000 1.0
Li     1  0.0477653000000 -0.0000000000000  0.5000000000000 1.0
N      2 -0.4522347000000 -0.3197936331635 -0.4997615440508 1.0
N      2 -0.4522347000000  0.3197936331635  0.4997615440508 1.0
N      2 -0.4522347000000  0.1799679108873  0.4997615440508 1.0
N      2 -0.4522347000000 -0.1799679108873 -0.4997615440508 1.0
END
