TITL LiN2-230326-172313-2a97a0 -0.0225 91.746004 -2.22617756E+003 0 0  9 (Immm) n - 1
REM
REM Run started: Sun, 26 Mar 2023 17:26:55 +0100 in /scratch/scratch/uccabz1/launch_tmp_michael/launcher_2023-03-26-16-23-13-102191
REM CASTEP 21.1 from code version cdfb9687+ bz-changes Mon Jan 4 11:18:28 2021 +0000
REM Functional Perdew Burke Ernzerhof Relativity Koelling-Harmon Dispersion off
REM Cut-off 340.0000 eV Grid scale 1.7500 Gmax 16.5316 1/A FBSC none
REM MP grid 3 5 4 Offset 0.000 0.000 0.000 No. kpts 30 Spacing 0.07
REM Total runtime: 246.4 s
REM Overall efficiency: 81 %
REM
REM LiN2.cell (b953e92e767f3f2c67521e63ea917690)
REM ## AIRSS Version 0.9.3 July 2022 commit v0.9.3-8-ga1e635fa32177e30cc
REM compiler GCC version 4.9.2
REM options -cpp -iprefix /scratch/UCL/applications/gcc/4.9.2/bin/../lib/gcc/x86_64-unknown-linux-gnu/4.9.2/ -mtune=corei7 -march=x86-64 -g -Og
REM COMMAND_LINE
REM seed -749519994 -45570550 -1916093135 842540152 -498037964 -1969675107 1961782923 202304182 383816442 1839535520 1505002646 -822878353
REM
REM N 2|1.4|13|15|17|20:21(qc=5)
REM Li 1|1.3|8|9|10|10U:20(qc=5)
REM 
CELL 1.54180    5.95070    3.39819    5.69918   72.17563  121.47096   89.99999
LATT -1
SFAC Li N  
Li     1  0.1911695076154  0.3095595593291 -0.6176609847692 1.0
Li     1 -0.1911695076154 -0.3095595593291  0.6176609847692 1.0
Li     1 -0.5000000000000 -0.0000000000000  0.0000000000000 1.0
N      2  0.2196716807554 -0.4249723398717 -0.1473928260334 1.0
N      2  0.3670645067888  0.4249723398717  0.1473928260334 1.0
N      2 -0.2196716807554  0.4249723398717  0.1473928260334 1.0
N      2 -0.3670645067888 -0.4249723398717 -0.1473928260334 1.0
N      2  0.3442187957343 -0.3417118382528 -0.3115624085315 1.0
N      2 -0.3442187957343  0.3417118382528  0.3115624085315 1.0
END
