TITL LiN2-230326-173611-d24ad7 0.0748 142.574827 -2.96963639E+003 0 0  12 (P2) n - 1
REM
REM Run started: Sun, 26 Mar 2023 17:44:19 +0100 in /scratch/scratch/uccabz1/launch_tmp_michael/launcher_2023-03-26-16-36-11-216040
REM CASTEP 21.1 from code version cdfb9687+ bz-changes Mon Jan 4 11:18:28 2021 +0000
REM Functional Perdew Burke Ernzerhof Relativity Koelling-Harmon Dispersion off
REM Cut-off 340.0000 eV Grid scale 1.7500 Gmax 16.5316 1/A FBSC none
REM MP grid 4 2 3 Offset 0.000 0.000 0.000 No. kpts 8 Spacing 0.07
REM Total runtime: 504.1 s
REM Overall efficiency: 62.7778 %
REM
REM LiN2.cell (b953e92e767f3f2c67521e63ea917690)
REM ## AIRSS Version 0.9.3 July 2022 commit v0.9.3-8-ga1e635fa32177e30cc
REM compiler GCC version 4.9.2
REM options -cpp -iprefix /scratch/UCL/applications/gcc/4.9.2/bin/../lib/gcc/x86_64-unknown-linux-gnu/4.9.2/ -mtune=corei7 -march=x86-64 -g -Og
REM COMMAND_LINE
REM seed -752904847 -2083452548 -1852750946 670229389 539188453 675726774 -1547696649 2061729026 1119541982 -239250758 453876259 1727338582
REM
REM N 2|1.4|13|15|17|20:21(qc=5)
REM Li 1|1.3|8|9|10|10U:20(qc=5)
REM 
CELL 1.54180    4.13890    7.30677    4.74535   90.00000   90.00000   96.54124
LATT -1
SFAC Li N  
Li     1  0.3557455299647 -0.1886133678470  0.3442271309997 1.0
Li     1 -0.3557455299647  0.1886133678470  0.3442271309997 1.0
Li     1  0.1853342297260  0.3383066122230 -0.3020224838128 1.0
Li     1 -0.1853342297260 -0.3383066122230 -0.3020224838128 1.0
N      2  0.5865249977462  0.2531335507144 -0.0690665879503 1.0
N      2 -0.5865249977462 -0.2531335507144 -0.0690665879503 1.0
N      2  0.3133507810077 -0.3446199246845 -0.2699722261169 1.0
N      2 -0.3133507810077  0.3446199246845 -0.2699722261169 1.0
N      2  0.1092663007909  0.0617051210535  0.5035453089688 1.0
N      2 -0.1092663007909 -0.0617051210535  0.5035453089688 1.0
N      2 -0.0291624884379 -0.4233035634269  0.2471806579115 1.0
N      2  0.0291624884379  0.4233035634269  0.2471806579115 1.0
END
