TITL LiN2-230326-162711-e65048 0.0483 238.826264 -4.45604444E+003 0 0  18 (Cc) n - 1
REM
REM Run started: Sun, 26 Mar 2023 16:39:08 +0100 in /scratch/scratch/uccabz1/launch_tmp_michael/launcher_2023-03-26-15-27-11-206420
REM CASTEP 21.1 from code version cdfb9687+ bz-changes Mon Jan 4 11:18:28 2021 +0000
REM Functional Perdew Burke Ernzerhof Relativity Koelling-Harmon Dispersion off
REM Cut-off 340.0000 eV Grid scale 1.7500 Gmax 16.5316 1/A FBSC none
REM MP grid 3 3 3 Offset 0.000 0.000 0.000 No. kpts 10 Spacing 0.07
REM Total runtime: 723.48 s
REM Overall efficiency: 74.5 %
REM
REM LiN2.cell (b953e92e767f3f2c67521e63ea917690)
REM ## AIRSS Version 0.9.3 July 2022 commit v0.9.3-8-ga1e635fa32177e30cc
REM compiler GCC version 4.9.2
REM options -cpp -iprefix /scratch/UCL/applications/gcc/4.9.2/bin/../lib/gcc/x86_64-unknown-linux-gnu/4.9.2/ -mtune=corei7 -march=x86-64 -g -Og
REM COMMAND_LINE
REM seed 680099141 220209866 1197875189 -1188888079 957515426 637533313 -570077632 1994556374 -1900955629 673831554 193371158 -71575628
REM
REM N 2|1.4|13|15|17|20:21(qc=5)
REM Li 1|1.3|8|9|10|10U:20(qc=5)
REM 
CELL 1.54180    7.01277    7.01277    6.66878  105.89680  102.54152  122.21070
LATT -1
SFAC Li N  
Li     1 -0.0837928160148 -0.4717177744246  0.3581926537284 1.0
Li     1  0.3299104281530  0.4419854697432 -0.1418073462716 1.0
Li     1 -0.5549583712731  0.2683613617083  0.5296920305821 1.0
Li     1 -0.2386693311262  0.0846504018552  0.0296920305821 1.0
Li     1  0.4006354006794 -0.3572178625498  0.4720328260581 1.0
Li     1  0.3292506886079  0.0713974253787 -0.0279671739419 1.0
N      2  0.0352174125049  0.3000390380138  0.3560109508789 1.0
N      2 -0.4440280871350  0.3207935383739 -0.1439890491211 1.0
N      2  0.3754706122221 -0.2233417972481 -0.1840791277878 1.0
N      2  0.5392626694603  0.4404502599902  0.3159208722122 1.0
N      2  0.1842018612162  0.3059192436912 -0.5058115426907 1.0
N      2 -0.3117307863818  0.3099865960931 -0.0058115426907 1.0
N      2 -0.2512855147287 -0.0219583402333 -0.3599493134594 1.0
N      2  0.1620090267740 -0.1086637987306  0.1400506865406 1.0
N      2 -0.0358809919416  0.1414505085268 -0.2479025196524 1.0
N      2  0.1106469718208 -0.2120215277108  0.2520974803476 1.0
N      2 -0.5731753828539 -0.5355294176738  0.1731487423427 1.0
N      2  0.2086781600164 -0.2536758748034 -0.3268512576573 1.0
END
