TITL LiN2-230326-192230-a3e3df 0.0293 104.286879 -2.22456794E+003 0 0  9 (I-42m) n - 1
REM
REM Run started: Sun, 26 Mar 2023 19:28:48 +0100 in /scratch/scratch/uccabz1/launch_tmp_michael/launcher_2023-03-26-18-22-29-849636
REM CASTEP 21.1 from code version cdfb9687+ bz-changes Mon Jan 4 11:18:28 2021 +0000
REM Functional Perdew Burke Ernzerhof Relativity Koelling-Harmon Dispersion off
REM Cut-off 340.0000 eV Grid scale 1.7500 Gmax 16.5316 1/A FBSC none
REM MP grid 4 4 3 Offset 0.000 0.000 0.000 No. kpts 16 Spacing 0.07
REM Total runtime: 412.13 s
REM Overall efficiency: 83.3333 %
REM
REM LiN2.cell (b953e92e767f3f2c67521e63ea917690)
REM ## AIRSS Version 0.9.3 July 2022 commit v0.9.3-8-ga1e635fa32177e30cc
REM compiler GCC version 4.9.2
REM options -cpp -iprefix /scratch/UCL/applications/gcc/4.9.2/bin/../lib/gcc/x86_64-unknown-linux-gnu/4.9.2/ -mtune=corei7 -march=x86-64 -g -Og
REM COMMAND_LINE
REM seed 25511725 667304001 -1886886007 735961649 635113376 -1735945686 -1472867238 -620708410 1481351017 546726610 1189477649 1618733522
REM
REM N 2|1.4|13|15|17|20:21(qc=5)
REM Li 1|1.3|8|9|10|10U:20(qc=5)
REM 
CELL 1.54180    4.57351    4.57351    5.94275  112.63116  112.63116   90.00000
LATT -1
SFAC Li N  
Li     1  0.5000000500000 -0.0000000500000  0.0000000000000 1.0
Li     1  0.0000000500000 -0.5000000500000  0.0000000000000 1.0
Li     1  0.0000000500000 -0.0000000500000  0.0000000000000 1.0
N      2  0.1906178948145 -0.4325715712265 -0.2419536764119 1.0
N      2 -0.4325714712265  0.1906177948145 -0.2419536764119 1.0
N      2 -0.1906177948145 -0.1906178948145  0.2419536764119 1.0
N      2  0.4325715712265  0.4325714712265  0.2419536764119 1.0
N      2  0.3689015854916  0.3689014854916 -0.2621969290167 1.0
N      2 -0.3689014854916 -0.3689015854916  0.2621969290167 1.0
END
