TITL LiN2-230326-150724-40dd59 0.0074 61.272888 -1.48563226E+003 0 0  6 (P-1) n - 1
REM
REM Run started: Sun, 26 Mar 2023 15:09:24 +0100 in /scratch/scratch/uccabz1/launch_tmp_michael/launcher_2023-03-26-14-07-24-733593
REM CASTEP 21.1 from code version cdfb9687+ bz-changes Mon Jan 4 11:18:28 2021 +0000
REM Functional Perdew Burke Ernzerhof Relativity Koelling-Harmon Dispersion off
REM Cut-off 340.0000 eV Grid scale 1.7500 Gmax 16.5316 1/A FBSC none
REM MP grid 6 3 4 Offset 0.000 0.000 0.000 No. kpts 36 Spacing 0.07
REM Total runtime: 130.69 s
REM Overall efficiency: 73 %
REM
REM LiN2.cell (b953e92e767f3f2c67521e63ea917690)
REM ## AIRSS Version 0.9.3 July 2022 commit v0.9.3-8-ga1e635fa32177e30cc
REM compiler GCC version 4.9.2
REM options -cpp -iprefix /scratch/UCL/applications/gcc/4.9.2/bin/../lib/gcc/x86_64-unknown-linux-gnu/4.9.2/ -mtune=corei7 -march=x86-64 -g -Og
REM COMMAND_LINE
REM seed -1905227451 473456491 1660029745 -855987251 -1474278468 1476159415 -370134732 -1157651125 -60377223 1102048260 307214421 1782328664
REM
REM N 2|1.4|13|15|17|20:21(qc=5)
REM Li 1|1.3|8|9|10|10U:20(qc=5)
REM 
CELL 1.54180    2.84848    5.68006    4.45367   90.06916   89.87513  121.75296
LATT -1
SFAC Li N  
Li     1 -0.4852652306227 -0.7393328006690 -0.2311309753993 1.0
Li     1  0.4852652306227  0.7393328006690  0.2311309753993 1.0
N      2 -0.0029381864042 -0.2516112819954 -0.3959844056716 1.0
N      2  0.0029381864042  0.2516112819954  0.3959844056716 1.0
N      2 -0.0033597014471 -0.2511513685013 -0.1269529053719 1.0
N      2  0.0033597014471  0.2511513685013  0.1269529053719 1.0
END
