TITL LiN2-230326-181544-d4f652 -0.0076 214.513638 -4.45328509E+003 0 0  18 (Aea2) n - 1
REM
REM Run started: Sun, 26 Mar 2023 18:22:29 +0100 in /scratch/scratch/uccabz1/launch_tmp_michael/launcher_2023-03-26-17-15-44-023495
REM CASTEP 21.1 from code version cdfb9687+ bz-changes Mon Jan 4 11:18:28 2021 +0000
REM Functional Perdew Burke Ernzerhof Relativity Koelling-Harmon Dispersion off
REM Cut-off 340.0000 eV Grid scale 1.7500 Gmax 16.5316 1/A FBSC none
REM MP grid 4 4 2 Offset 0.000 0.000 0.000 No. kpts 8 Spacing 0.07
REM Total runtime: 511.33 s
REM Overall efficiency: 69.4286 %
REM
REM LiN2.cell (b953e92e767f3f2c67521e63ea917690)
REM ## AIRSS Version 0.9.3 July 2022 commit v0.9.3-8-ga1e635fa32177e30cc
REM compiler GCC version 4.9.2
REM options -cpp -iprefix /scratch/UCL/applications/gcc/4.9.2/bin/../lib/gcc/x86_64-unknown-linux-gnu/4.9.2/ -mtune=corei7 -march=x86-64 -g -Og
REM COMMAND_LINE
REM seed 16673008 -1335689806 -1585857540 1454182360 1937542939 -514394973 -1457920510 -979539079 1112151041 1630164639 2016271404 -938430181
REM
REM N 2|1.4|13|15|17|20:21(qc=5)
REM Li 1|1.3|8|9|10|10U:20(qc=5)
REM 
CELL 1.54180    4.46143    4.75930   11.43677   90.00000   90.00000  117.95035
LATT -1
SFAC Li N  
Li     1 -0.0003429588055 -0.0695249901816 -0.3231468061157 1.0
Li     1 -0.0691821313761 -0.0695249901816  0.3231468061157 1.0
Li     1  0.4308178686239 -0.0695249901816  0.1768531938843 1.0
Li     1  0.4996570411945 -0.0695249901816 -0.1768531938843 1.0
Li     1  0.0826982122318  0.1653965244637  0.0000000000000 1.0
Li     1 -0.4173017877682  0.1653965244637 -0.5000000000000 1.0
N      2 -0.2103442048859  0.4906940904392 -0.2554938108053 1.0
N      2 -0.2989618046749  0.4906940904392  0.2554938108053 1.0
N      2  0.2010381953251  0.4906940904392  0.2445061891947 1.0
N      2  0.2896557951141  0.4906940904392 -0.2445061891947 1.0
N      2  0.4478596320147  0.3073741639017 -0.2522322484790 1.0
N      2 -0.1404855681130  0.3073741639017  0.2522322484790 1.0
N      2  0.3595144318870  0.3073741639017  0.2477677515210 1.0
N      2 -0.0521403679853  0.3073741639017 -0.2477677515210 1.0
N      2 -0.3904481778512 -0.0552463763911  0.0018012351067 1.0
N      2 -0.6647982985400 -0.0552463763911 -0.0018012351067 1.0
N      2 -0.1647982985400 -0.0552463763911 -0.4981987648933 1.0
N      2  0.1095518221488 -0.0552463763911  0.4981987648933 1.0
END
