TITL LiN2-230326-163343-3aed4f -0.0095 141.295388 -2.96974415E+003 0 0  12 (P2221) n - 1
REM
REM Run started: Sun, 26 Mar 2023 16:37:26 +0100 in /scratch/scratch/uccabz1/launch_tmp_michael/launcher_2023-03-26-15-33-43-113911
REM CASTEP 21.1 from code version cdfb9687+ bz-changes Mon Jan 4 11:18:28 2021 +0000
REM Functional Perdew Burke Ernzerhof Relativity Koelling-Harmon Dispersion off
REM Cut-off 340.0000 eV Grid scale 1.7500 Gmax 16.5316 1/A FBSC none
REM MP grid 5 2 3 Offset 0.000 0.000 0.000 No. kpts 6 Spacing 0.07
REM Total runtime: 220.48 s
REM Overall efficiency: 49.2 %
REM
REM LiN2.cell (b953e92e767f3f2c67521e63ea917690)
REM ## AIRSS Version 0.9.3 July 2022 commit v0.9.3-8-ga1e635fa32177e30cc
REM compiler GCC version 4.9.2
REM options -cpp -iprefix /scratch/UCL/applications/gcc/4.9.2/bin/../lib/gcc/x86_64-unknown-linux-gnu/4.9.2/ -mtune=corei7 -march=x86-64 -g -Og
REM COMMAND_LINE
REM seed -1692087042 1080767306 -1931734922 -626944968 -7784663 1794426427 994961038 -1720621899 1763751269 -131208836 1156824977 1559394819
REM
REM N 2|1.4|13|15|17|20:21(qc=5)
REM Li 1|1.3|8|9|10|10U:20(qc=5)
REM 
CELL 1.54180    2.98377    8.61033    5.49975   90.00000   90.00000   90.00000
LATT -1
SFAC Li N  
Li     1 -0.2170971429787  0.2408566305350  0.2393464073071 1.0
Li     1  0.2170971429787 -0.2591433694650 -0.2393464073071 1.0
Li     1 -0.2170971429787  0.2591433694650 -0.2393464073071 1.0
Li     1  0.2170971429787 -0.2408566305350  0.2393464073071 1.0
N      2 -0.2817352492897 -0.1792560826594  0.5019674308195 1.0
N      2  0.2817352492897  0.3207439173406 -0.5019674308195 1.0
N      2 -0.2817352492897 -0.3207439173406 -0.5019674308195 1.0
N      2  0.2817352492897  0.1792560826594  0.5019674308195 1.0
N      2 -0.0092024530148  0.0685812517731 -0.0019396377644 1.0
N      2  0.0092024530148 -0.4314187482269  0.0019396377644 1.0
N      2 -0.0092024530148  0.4314187482269  0.0019396377644 1.0
N      2  0.0092024530148 -0.0685812517731 -0.0019396377644 1.0
END
