TITL LiN2-230326-200009-2f403a 0.0024 83.170688 -1.48450737E+003 0 0  6 (Cm) n - 1
REM
REM Run started: Sun, 26 Mar 2023 20:03:00 +0100 in /scratch/scratch/uccabz1/launch_tmp_michael/launcher_2023-03-26-19-00-09-761606
REM CASTEP 21.1 from code version cdfb9687+ bz-changes Mon Jan 4 11:18:28 2021 +0000
REM Functional Perdew Burke Ernzerhof Relativity Koelling-Harmon Dispersion off
REM Cut-off 340.0000 eV Grid scale 1.7500 Gmax 16.5316 1/A FBSC none
REM MP grid 5 3 3 Offset 0.000 0.000 0.000 No. kpts 16 Spacing 0.07
REM Total runtime: 191.96 s
REM Overall efficiency: 50 %
REM
REM LiN2.cell (b953e92e767f3f2c67521e63ea917690)
REM ## AIRSS Version 0.9.3 July 2022 commit v0.9.3-8-ga1e635fa32177e30cc
REM compiler GCC version 4.9.2
REM options -cpp -iprefix /scratch/UCL/applications/gcc/4.9.2/bin/../lib/gcc/x86_64-unknown-linux-gnu/4.9.2/ -mtune=corei7 -march=x86-64 -g -Og
REM COMMAND_LINE
REM seed -235745148 566870765 -1894712342 298928932 -662510495 -1933699490 -1982164074 1660949188 -782514393 412644757 1386543015 29873638
REM
REM N 2|1.4|13|15|17|20:21(qc=5)
REM Li 1|1.3|8|9|10|10U:20(qc=5)
REM 
CELL 1.54180    3.40922    5.36129    5.36129   74.66648   67.81766   67.81766
LATT -1
SFAC Li N  
Li     1 -0.1068344818430 -0.4184948049343  0.0335492628599 1.0
Li     1 -0.1068344818430  0.0335492628599 -0.4184948049343 1.0
N      2 -0.4829474190669 -0.4061361759981 -0.1874028561984 1.0
N      2 -0.4829474190669 -0.1874028561984 -0.4061361759981 1.0
N      2 -0.3424086990901 -0.3739165932486  0.4188519675195 1.0
N      2 -0.3424086990901  0.4188519675195 -0.3739165932486 1.0
END
