TITL LiN2-230326-192237-302530 -0.0278 65.981627 -1.48495217E+003 0 0  6 (Aea2) n - 1
REM
REM Run started: Sun, 26 Mar 2023 19:23:30 +0100 in /scratch/scratch/uccabz1/launch_tmp_michael/launcher_2023-03-26-18-22-37-326796
REM CASTEP 21.1 from code version cdfb9687+ bz-changes Mon Jan 4 11:18:28 2021 +0000
REM Functional Perdew Burke Ernzerhof Relativity Koelling-Harmon Dispersion off
REM Cut-off 340.0000 eV Grid scale 1.7500 Gmax 16.5316 1/A FBSC none
REM MP grid 3 4 4 Offset 0.000 0.000 0.000 No. kpts 12 Spacing 0.07
REM Total runtime: 63.51 s
REM Overall efficiency: 51.6667 %
REM
REM LiN2.cell (b953e92e767f3f2c67521e63ea917690)
REM ## AIRSS Version 0.9.3 July 2022 commit v0.9.3-8-ga1e635fa32177e30cc
REM compiler GCC version 4.9.2
REM options -cpp -iprefix /scratch/UCL/applications/gcc/4.9.2/bin/../lib/gcc/x86_64-unknown-linux-gnu/4.9.2/ -mtune=corei7 -march=x86-64 -g -Og
REM COMMAND_LINE
REM seed 1916564205 46097776 -2059934870 -256986563 -118285297 -1382786832 -1807520581 -592038066 633130929 -501427363 1903230322 1655529841
REM
REM N 2|1.4|13|15|17|20:21(qc=5)
REM Li 1|1.3|8|9|10|10U:20(qc=5)
REM 
CELL 1.54180    4.88573    3.67716    3.67716   92.83566   90.00000   90.00000
LATT -1
SFAC Li N  
Li     1 -0.5000000000000 -0.1140706259796  0.1140706259796 1.0
Li     1 -0.0000000000000  0.3859293740204 -0.3859293740204 1.0
N      2  0.0569872188541 -0.0977398699178  0.3073825041026 1.0
N      2 -0.0569872188541 -0.3073825041026  0.0977398699178 1.0
N      2 -0.4430127811459  0.1926174958974 -0.4022601300822 1.0
N      2  0.4430127811459  0.4022601300822 -0.1926174958974 1.0
END
