TITL LiN2-230326-145405-a9cb02 -0.0128 104.270361 -2.22582371E+003 0 0  9 (F222) n - 1
REM
REM Run started: Sun, 26 Mar 2023 14:57:52 +0100 in /scratch/scratch/uccabz1/launch_tmp_michael/launcher_2023-03-26-13-54-05-805212
REM CASTEP 21.1 from code version cdfb9687+ bz-changes Mon Jan 4 11:18:28 2021 +0000
REM Functional Perdew Burke Ernzerhof Relativity Koelling-Harmon Dispersion off
REM Cut-off 340.0000 eV Grid scale 1.7500 Gmax 16.5316 1/A FBSC none
REM MP grid 4 4 5 Offset 0.000 0.000 0.000 No. kpts 26 Spacing 0.07
REM Total runtime: 383.59 s
REM Overall efficiency: 76.1667 %
REM
REM LiN2.cell (b953e92e767f3f2c67521e63ea917690)
REM ## AIRSS Version 0.9.3 July 2022 commit v0.9.3-8-ga1e635fa32177e30cc
REM compiler GCC version 4.9.2
REM options -cpp -iprefix /scratch/UCL/applications/gcc/4.9.2/bin/../lib/gcc/x86_64-unknown-linux-gnu/4.9.2/ -mtune=corei7 -march=x86-64 -g -Og
REM COMMAND_LINE
REM seed 1979930884 1023469297 1225586754 34119193 712415910 191481155 -2146233867 737811036 -893952614 728755012 1610177221 -1481371432
REM
REM N 2|1.4|13|15|17|20:21(qc=5)
REM Li 1|1.3|8|9|10|10U:20(qc=5)
REM 
CELL 1.54180    7.02951    7.02951    6.67251  144.49605  144.49605   56.94356
LATT -1
SFAC Li N  
Li     1  0.4514648513044 -0.4514648513044  0.5000000000000 1.0
Li     1  0.0485351486956 -0.0485351486956  0.5000000000000 1.0
Li     1  0.5000000000000  0.5000000000000  0.0000000000000 1.0
N      2  0.2384439108870 -0.1523577933041 -0.0090559394213 1.0
N      2 -0.2474998503083  0.1433018538829 -0.0090559394213 1.0
N      2  0.1523577933041 -0.2384439108870  0.0090559394213 1.0
N      2 -0.1433018538829  0.2474998503083  0.0090559394213 1.0
N      2 -0.1286720012248  0.3713279987752 -0.2573440024496 1.0
N      2 -0.3713279987752  0.1286720012248  0.2573440024496 1.0
END
