TITL LiN2-230326-165933-1e4901 -0.0119 94.897307 -2.22557545E+003 0 0  9 (Cm) n - 1
REM
REM Run started: Sun, 26 Mar 2023 17:03:44 +0100 in /scratch/scratch/uccabz1/launch_tmp_michael/launcher_2023-03-26-15-59-33-037332
REM CASTEP 21.1 from code version cdfb9687+ bz-changes Mon Jan 4 11:18:28 2021 +0000
REM Functional Perdew Burke Ernzerhof Relativity Koelling-Harmon Dispersion off
REM Cut-off 340.0000 eV Grid scale 1.7500 Gmax 16.5316 1/A FBSC none
REM MP grid 5 5 3 Offset 0.000 0.000 0.000 No. kpts 24 Spacing 0.07
REM Total runtime: 288.91 s
REM Overall efficiency: 64.1429 %
REM
REM LiN2.cell (b953e92e767f3f2c67521e63ea917690)
REM ## AIRSS Version 0.9.3 July 2022 commit v0.9.3-8-ga1e635fa32177e30cc
REM compiler GCC version 4.9.2
REM options -cpp -iprefix /scratch/UCL/applications/gcc/4.9.2/bin/../lib/gcc/x86_64-unknown-linux-gnu/4.9.2/ -mtune=corei7 -march=x86-64 -g -Og
REM COMMAND_LINE
REM seed 762732278 -1278469095 -940320092 -1332189507 -1473850980 -588939577 576271768 810087440 1858622309 -114774317 1389350529 49760409
REM
REM N 2|1.4|13|15|17|20:21(qc=5)
REM Li 1|1.3|8|9|10|10U:20(qc=5)
REM 
CELL 1.54180    3.82261    3.82261    7.23768   90.75911   90.75911   63.81894
LATT -1
SFAC Li N  
Li     1  0.0784363134985 -0.4244053331541  0.2159763065648 1.0
Li     1 -0.4244053331541  0.0784363134985  0.2159763065648 1.0
Li     1  0.2004337941176  0.2004337941176 -0.2868072842665 1.0
N      2 -0.3481442044799 -0.0510271133631 -0.5060725556513 1.0
N      2 -0.0510271133631 -0.3481442044799 -0.5060725556513 1.0
N      2  0.4330814946921 -0.2392749558435 -0.0934674633204 1.0
N      2 -0.2392749558435  0.4330814946921 -0.0934674633204 1.0
N      2 -0.1085450248182  0.2539474293505  0.0747628545402 1.0
N      2  0.2539474293505 -0.1085450248182  0.0747628545402 1.0
END
