TITL LiN2-230326-195821-ebe97f 0.0107 58.240079 -1.48543931E+003 0 0  6 (P4/mmm) n - 1
REM
REM Run started: Sun, 26 Mar 2023 19:58:59 +0100 in /scratch/scratch/uccabz1/launch_tmp_michael/launcher_2023-03-26-18-58-20-994688
REM CASTEP 21.1 from code version cdfb9687+ bz-changes Mon Jan 4 11:18:28 2021 +0000
REM Functional Perdew Burke Ernzerhof Relativity Koelling-Harmon Dispersion off
REM Cut-off 340.0000 eV Grid scale 1.7500 Gmax 16.5316 1/A FBSC none
REM MP grid 4 4 4 Offset 0.000 0.000 0.000 No. kpts 12 Spacing 0.07
REM Total runtime: 41.23 s
REM Overall efficiency: 45.2 %
REM
REM LiN2.cell (b953e92e767f3f2c67521e63ea917690)
REM ## AIRSS Version 0.9.3 July 2022 commit v0.9.3-8-ga1e635fa32177e30cc
REM compiler GCC version 4.9.2
REM options -cpp -iprefix /scratch/UCL/applications/gcc/4.9.2/bin/../lib/gcc/x86_64-unknown-linux-gnu/4.9.2/ -mtune=corei7 -march=x86-64 -g -Og
REM COMMAND_LINE
REM seed 671787374 -170114609 1323224968 -970211656 -1468239169 702344224 1329714121 -1052156759 548079590 -94383207 1968345401 1170026646
REM
REM N 2|1.4|13|15|17|20:21(qc=5)
REM Li 1|1.3|8|9|10|10U:20(qc=5)
REM 
CELL 1.54180    3.86503    3.86503    3.89866   90.00000   90.00000   89.92986
LATT -1
SFAC Li N  
Li     1 -0.2500540648792  0.2500540648792 -0.5000000000000 1.0
Li     1  0.2500540648792 -0.2500540648792  0.5000000000000 1.0
N      2  0.2500318694418  0.2500318694418 -0.1521965388019 1.0
N      2 -0.2500318694418 -0.2500318694418 -0.1521965388019 1.0
N      2  0.2500318694418  0.2500318694418  0.1521965388019 1.0
N      2 -0.2500318694418 -0.2500318694418  0.1521965388019 1.0
END
