TITL LiN2-230326-172436-af3e44 -0.0140 128.519211 -2.96702775E+003 0 0  12 (P-1) n - 1
REM
REM Run started: Sun, 26 Mar 2023 17:30:30 +0100 in /scratch/scratch/uccabz1/launch_tmp_michael/launcher_2023-03-26-16-24-36-762973
REM CASTEP 21.1 from code version cdfb9687+ bz-changes Mon Jan 4 11:18:28 2021 +0000
REM Functional Perdew Burke Ernzerhof Relativity Koelling-Harmon Dispersion off
REM Cut-off 340.0000 eV Grid scale 1.7500 Gmax 16.5316 1/A FBSC none
REM MP grid 5 3 3 Offset 0.000 0.000 0.000 No. kpts 23 Spacing 0.07
REM Total runtime: 443.19 s
REM Overall efficiency: 69.4286 %
REM
REM LiN2.cell (b953e92e767f3f2c67521e63ea917690)
REM ## AIRSS Version 0.9.3 July 2022 commit v0.9.3-8-ga1e635fa32177e30cc
REM compiler GCC version 4.9.2
REM options -cpp -iprefix /scratch/UCL/applications/gcc/4.9.2/bin/../lib/gcc/x86_64-unknown-linux-gnu/4.9.2/ -mtune=corei7 -march=x86-64 -g -Og
REM COMMAND_LINE
REM seed -238645534 914607117 480454587 2020810558 936921594 1766481210 719505701 1453784276 -168978754 -1078243366 -838059301 -1150020533
REM
REM N 2|1.4|13|15|17|20:21(qc=5)
REM Li 1|1.3|8|9|10|10U:20(qc=5)
REM 
CELL 1.54180    3.25011    6.08620    6.51281   87.92051   90.95867   86.79247
LATT -1
SFAC Li N  
Li     1 -0.2006374290681 -0.1395141120967 -0.0737446015860 1.0
Li     1  0.2006374290681  0.1395141120967  0.0737446015860 1.0
Li     1  0.1994246232954  0.4212930595496 -0.2054428289574 1.0
Li     1 -0.1994246232954 -0.4212930595496  0.2054428289574 1.0
N      2 -0.3521205822982  0.2577443127118  0.4969514099133 1.0
N      2  0.3521205822982 -0.2577443127118 -0.4969514099133 1.0
N      2  0.2796476124632 -0.2173812544916  0.1341604727324 1.0
N      2 -0.2796476124632  0.2173812544916 -0.1341604727324 1.0
N      2 -0.3623015001752  0.2764619555682  0.3084184059805 1.0
N      2  0.3623015001752 -0.2764619555682 -0.3084184059805 1.0
N      2  0.1894597839936 -0.1992966292704  0.3327054819416 1.0
N      2 -0.1894597839936  0.1992966292704 -0.3327054819416 1.0
END
