TITL LiN2-230326-155239-82b239 0.0334 248.373765 -4.45281537E+003 0 0  18 (Ama2) n - 1
REM
REM Run started: Sun, 26 Mar 2023 16:04:23 +0100 in /scratch/scratch/uccabz1/launch_tmp_michael/launcher_2023-03-26-14-52-39-572910
REM CASTEP 21.1 from code version cdfb9687+ bz-changes Mon Jan 4 11:18:28 2021 +0000
REM Functional Perdew Burke Ernzerhof Relativity Koelling-Harmon Dispersion off
REM Cut-off 340.0000 eV Grid scale 1.7500 Gmax 16.5316 1/A FBSC none
REM MP grid 3 3 4 Offset 0.000 0.000 0.000 No. kpts 12 Spacing 0.07
REM Total runtime: 823.12 s
REM Overall efficiency: 70.125 %
REM
REM LiN2.cell (b953e92e767f3f2c67521e63ea917690)
REM ## AIRSS Version 0.9.3 July 2022 commit v0.9.3-8-ga1e635fa32177e30cc
REM compiler GCC version 4.9.2
REM options -cpp -iprefix /scratch/UCL/applications/gcc/4.9.2/bin/../lib/gcc/x86_64-unknown-linux-gnu/4.9.2/ -mtune=corei7 -march=x86-64 -g -Og
REM COMMAND_LINE
REM seed 160433762 -162255180 -983729218 -571461341 385665926 -1623839057 1926551888 1948010455 -2062086061 1982510258 -1943594103 -1608476386
REM
REM N 2|1.4|13|15|17|20:21(qc=5)
REM Li 1|1.3|8|9|10|10U:20(qc=5)
REM 
CELL 1.54180    5.70490    9.97629    6.62770  138.81789   90.00000   90.00000
LATT -1
SFAC Li N  
Li     1 -0.0127152463880 -0.0701660924061  0.3715250914958 1.0
Li     1  0.0127152463880  0.4416912839019  0.3715250914958 1.0
Li     1  0.4872847536120  0.4416912839019  0.3715250914958 1.0
Li     1 -0.4872847536120 -0.0701660924061  0.3715250914958 1.0
Li     1 -0.2500000000000  0.3532149601360 -0.2406264228242 1.0
Li     1  0.2500000000000 -0.5938412829602 -0.2406264228242 1.0
N      2 -0.0035796330996  0.2438550263874 -0.6310565170683 1.0
N      2  0.0035796330996  0.1250885565443 -0.6310565170683 1.0
N      2  0.4964203669004  0.1250885565443 -0.6310565170683 1.0
N      2 -0.4964203669004  0.2438550263874 -0.6310565170683 1.0
N      2  0.1317288082382  0.1176445005299 -0.2185108417885 1.0
N      2 -0.1317288082382 -0.3361552423183 -0.2185108417885 1.0
N      2 -0.3682711917618 -0.3361552423183 -0.2185108417885 1.0
N      2  0.3682711917618  0.1176445005299 -0.2185108417885 1.0
N      2  0.1242602254826  0.3252511665081 -0.0217832712270 1.0
N      2 -0.1242602254826 -0.3470343377351 -0.0217832712270 1.0
N      2 -0.3757397745174 -0.3470343377351 -0.0217832712270 1.0
N      2  0.3757397745174  0.3252511665081 -0.0217832712270 1.0
END
