TITL LiN2-230326-184848-d25c08 -0.0220 70.930116 -1.48205870E+003 0 0  6 (R3) n - 1
REM
REM Run started: Sun, 26 Mar 2023 18:49:29 +0100 in /scratch/scratch/uccabz1/launch_tmp_michael/launcher_2023-03-26-17-48-48-484506
REM CASTEP 21.1 from code version cdfb9687+ bz-changes Mon Jan 4 11:18:28 2021 +0000
REM Functional Perdew Burke Ernzerhof Relativity Koelling-Harmon Dispersion off
REM Cut-off 340.0000 eV Grid scale 1.7500 Gmax 16.5316 1/A FBSC none
REM MP grid 4 4 4 Offset 0.000 0.000 0.000 No. kpts 12 Spacing 0.07
REM Total runtime: 45.58 s
REM Overall efficiency: 45.2 %
REM
REM LiN2.cell (b953e92e767f3f2c67521e63ea917690)
REM ## AIRSS Version 0.9.3 July 2022 commit v0.9.3-8-ga1e635fa32177e30cc
REM compiler GCC version 4.9.2
REM options -cpp -iprefix /scratch/UCL/applications/gcc/4.9.2/bin/../lib/gcc/x86_64-unknown-linux-gnu/4.9.2/ -mtune=corei7 -march=x86-64 -g -Og
REM COMMAND_LINE
REM seed -1146304710 1819557432 -1063093673 718812485 -1886098073 973288808 477038130 374841978 1905169010 176435715 1054583327 -830190199
REM
REM N 2|1.4|13|15|17|20:21(qc=5)
REM Li 1|1.3|8|9|10|10U:20(qc=5)
REM 
CELL 1.54180    4.28169    4.28169    4.28169   74.12832   74.12832   74.12832
LATT -1
SFAC Li N  
Li     1 -0.1914952356933 -0.1914952356933 -0.1914952356933 1.0
Li     1  0.4201478925739  0.4201478925739  0.4201478925739 1.0
N      2 -0.1107131424638  0.3897058818918  0.1511717380954 1.0
N      2  0.3897058818918  0.1511717380954 -0.1107131424638 1.0
N      2  0.1511717380954 -0.1107131424638  0.3897058818918 1.0
N      2  0.1419601655961  0.1419601655961  0.1419601655961 1.0
END
