TITL LiN2-230326-170249-1247e3 0.0550 140.456643 -2.96464826E+003 0 0  12 (R3) n - 1
REM
REM Run started: Sun, 26 Mar 2023 17:06:43 +0100 in /scratch/scratch/uccabz1/launch_tmp_michael/launcher_2023-03-26-16-02-49-113556
REM CASTEP 21.1 from code version cdfb9687+ bz-changes Mon Jan 4 11:18:28 2021 +0000
REM Functional Perdew Burke Ernzerhof Relativity Koelling-Harmon Dispersion off
REM Cut-off 340.0000 eV Grid scale 1.7500 Gmax 16.5316 1/A FBSC none
REM MP grid 3 3 3 Offset 0.000 0.000 0.000 No. kpts 6 Spacing 0.07
REM Total runtime: 241.87 s
REM Overall efficiency: 61.5 %
REM
REM LiN2.cell (b953e92e767f3f2c67521e63ea917690)
REM ## AIRSS Version 0.9.3 July 2022 commit v0.9.3-8-ga1e635fa32177e30cc
REM compiler GCC version 4.9.2
REM options -cpp -iprefix /scratch/UCL/applications/gcc/4.9.2/bin/../lib/gcc/x86_64-unknown-linux-gnu/4.9.2/ -mtune=corei7 -march=x86-64 -g -Og
REM COMMAND_LINE
REM seed 592055318 -830214277 -1214614597 -1401916410 -1424931202 -448623825 1805718736 -434323088 1852003317 1186888749 1117441161 -1155847
REM
REM N 2|1.4|13|15|17|20:21(qc=5)
REM Li 1|1.3|8|9|10|10U:20(qc=5)
REM 
CELL 1.54180    5.24245    5.24245    5.24245   82.24914   82.24914   82.24914
LATT -1
SFAC Li N  
Li     1  0.5202752224124 -0.2778447971871  0.2987765724405 1.0
Li     1 -0.2778447971871  0.2987765724405  0.5202752224124 1.0
Li     1  0.2987765724405  0.5202752224124 -0.2778447971871 1.0
Li     1 -0.1818466914850 -0.1818466914850 -0.1818466914850 1.0
N      2 -0.5131934701749  0.0964532142703  0.1065501161364 1.0
N      2  0.0964532142703  0.1065501161364 -0.5131934701749 1.0
N      2  0.1065501161364 -0.5131934701749  0.0964532142703 1.0
N      2 -0.4599784402950  0.1673663947765 -0.1220137320028 1.0
N      2  0.1673663947765 -0.1220137320028 -0.4599784402950 1.0
N      2 -0.1220137320028 -0.4599784402950  0.1673663947765 1.0
N      2 -0.3643859877986 -0.3643859877986 -0.3643859877986 1.0
N      2  0.2838594989074  0.2838594989074  0.2838594989074 1.0
END
