TITL LiN2-230326-151023-14669d -0.0109 270.492973 -4.45477266E+003 0 0  18 (Pc) n - 1
REM
REM Run started: Sun, 26 Mar 2023 15:24:41 +0100 in /scratch/scratch/uccabz1/launch_tmp_michael/launcher_2023-03-26-14-10-23-468185
REM CASTEP 21.1 from code version cdfb9687+ bz-changes Mon Jan 4 11:18:28 2021 +0000
REM Functional Perdew Burke Ernzerhof Relativity Koelling-Harmon Dispersion off
REM Cut-off 340.0000 eV Grid scale 1.7500 Gmax 16.5316 1/A FBSC none
REM MP grid 3 3 2 Offset 0.000 0.000 0.000 No. kpts 5 Spacing 0.07
REM Total runtime: 893.5 s
REM Overall efficiency: 67 %
REM
REM LiN2.cell (b953e92e767f3f2c67521e63ea917690)
REM ## AIRSS Version 0.9.3 July 2022 commit v0.9.3-8-ga1e635fa32177e30cc
REM compiler GCC version 4.9.2
REM options -cpp -iprefix /scratch/UCL/applications/gcc/4.9.2/bin/../lib/gcc/x86_64-unknown-linux-gnu/4.9.2/ -mtune=corei7 -march=x86-64 -g -Og
REM COMMAND_LINE
REM seed 1550935535 -1664304021 1275451156 624250481 1957991716 -1784685338 -590182031 1095945845 -821455597 526581643 1507474712 -1326996917
REM
REM N 2|1.4|13|15|17|20:21(qc=5)
REM Li 1|1.3|8|9|10|10U:20(qc=5)
REM 
CELL 1.54180    6.01712    5.92851    7.59144   90.00000   90.00000   92.75327
LATT -1
SFAC Li N  
Li     1 -0.4471460993982  0.1708333365506 -0.2586098605090 1.0
Li     1  0.0528539006018 -0.3291666634494  0.2586098605090 1.0
Li     1 -0.4850308345143  0.0800063156692  0.1346864568030 1.0
Li     1  0.0149691654857 -0.4199936843308 -0.1346864568030 1.0
Li     1 -0.5174092251266 -0.3911309943867  0.0116873915969 1.0
Li     1 -0.0174092251266  0.1088690056133 -0.0116873915969 1.0
N      2 -0.1311391050109  0.3269741236773 -0.3910006398197 1.0
N      2  0.3688608949891 -0.1730258763227  0.3910006398197 1.0
N      2 -0.3546343059902 -0.0747350381715 -0.0822334509952 1.0
N      2  0.1453656940098  0.4252649618285  0.0822334509952 1.0
N      2 -0.1195676091396 -0.0171211342515  0.2325119456947 1.0
N      2  0.3804323908604 -0.5171211342515 -0.2325119456947 1.0
N      2 -0.0910011784835  0.2580974845330 -0.2496622411671 1.0
N      2 -0.5910011784835 -0.2419025154670  0.2496622411671 1.0
N      2 -0.1196136202693 -0.0614827332984  0.3834741579355 1.0
N      2  0.3803863797307  0.4385172667016 -0.3834741579355 1.0
N      2 -0.2106848220675 -0.2139742603222 -0.0922027356528 1.0
N      2  0.2893151779325  0.2860257396778  0.0922027356528 1.0
END
