TITL LiN2-230326-182733-4be2dc 0.0175 51.131410 -1.48243390E+003 0 0  6 (P-62m) n - 1
REM
REM Run started: Sun, 26 Mar 2023 18:31:19 +0100 in /scratch/scratch/uccabz1/launch_tmp_michael/launcher_2023-03-26-17-27-33-486797
REM CASTEP 21.1 from code version cdfb9687+ bz-changes Mon Jan 4 11:18:28 2021 +0000
REM Functional Perdew Burke Ernzerhof Relativity Koelling-Harmon Dispersion off
REM Cut-off 340.0000 eV Grid scale 1.7500 Gmax 16.5316 1/A FBSC none
REM MP grid 4 4 6 Offset 0.000 0.000 0.000 No. kpts 48 Spacing 0.07
REM Total runtime: 229.43 s
REM Overall efficiency: 76 %
REM
REM LiN2.cell (b953e92e767f3f2c67521e63ea917690)
REM ## AIRSS Version 0.9.3 July 2022 commit v0.9.3-8-ga1e635fa32177e30cc
REM compiler GCC version 4.9.2
REM options -cpp -iprefix /scratch/UCL/applications/gcc/4.9.2/bin/../lib/gcc/x86_64-unknown-linux-gnu/4.9.2/ -mtune=corei7 -march=x86-64 -g -Og
REM COMMAND_LINE
REM seed 1546032989 406223601 955476055 -1727532208 -1315488851 574144390 -472677032 1106588791 45849335 -145618344 918724432 -510382377
REM
REM N 2|1.4|13|15|17|20:21(qc=5)
REM Li 1|1.3|8|9|10|10U:20(qc=5)
REM 
CELL 1.54180    4.89719    4.89719    2.46186   90.00000   90.00000  120.00000
LATT -1
SFAC Li N  
Li     1 -0.3333333000000  0.3333333000000  0.2046445761116 1.0
Li     1  0.3333333666667 -0.3333333666667 -0.7950356736537 1.0
N      2 -0.2699708809898  0.0000829846946 -0.2906849848821 1.0
N      2 -0.0000829846946 -0.2700539656844 -0.2906849848821 1.0
N      2  0.2700539656844  0.2699708809898 -0.2906849848821 1.0
N      2  0.0000000333333 -0.0000000333333  0.7093383521884 1.0
END
