TITL LiN2-230326-150809-b7986c -0.0011 166.894738 -2.96518825E+003 0 0  12 (Cmm2) n - 1
REM
REM Run started: Sun, 26 Mar 2023 15:10:02 +0100 in /scratch/scratch/uccabz1/launch_tmp_michael/launcher_2023-03-26-14-08-09-784018
REM CASTEP 21.1 from code version cdfb9687+ bz-changes Mon Jan 4 11:18:28 2021 +0000
REM Functional Perdew Burke Ernzerhof Relativity Koelling-Harmon Dispersion off
REM Cut-off 340.0000 eV Grid scale 1.7500 Gmax 16.5316 1/A FBSC none
REM MP grid 7 2 2 Offset 0.000 0.000 0.000 No. kpts 8 Spacing 0.07
REM Total runtime: 140.31 s
REM Overall efficiency: 62.4 %
REM
REM LiN2.cell (b953e92e767f3f2c67521e63ea917690)
REM ## AIRSS Version 0.9.3 July 2022 commit v0.9.3-8-ga1e635fa32177e30cc
REM compiler GCC version 4.9.2
REM options -cpp -iprefix /scratch/UCL/applications/gcc/4.9.2/bin/../lib/gcc/x86_64-unknown-linux-gnu/4.9.2/ -mtune=corei7 -march=x86-64 -g -Og
REM COMMAND_LINE
REM seed -233155490 999692769 1999180242 -1426554872 -523039792 982612382 1011216221 1088364794 -1131417799 2054744994 -1012429885 2004058475
REM
REM N 2|1.4|13|15|17|20:21(qc=5)
REM Li 1|1.3|8|9|10|10U:20(qc=5)
REM 
CELL 1.54180    2.22779    8.66338    8.66338   86.51089   90.00000   90.00000
LATT -1
SFAC Li N  
Li     1 -0.2143482356893 -0.4043887862170  0.1595753561735 1.0
Li     1 -0.2143482356893  0.4043887862170 -0.1595753561735 1.0
Li     1 -0.2143482356893  0.1595753561735 -0.4043887862170 1.0
Li     1 -0.2143482356893 -0.1595753561735  0.4043887862170 1.0
N      2 -0.2521588167398 -0.3693212512348 -0.1038918078008 1.0
N      2 -0.2521588167398  0.3693212512348  0.1038918078008 1.0
N      2 -0.2521588167398 -0.1038918078008 -0.3693212512348 1.0
N      2 -0.2521588167398  0.1038918078008  0.3693212512348 1.0
N      2  0.2482815524291 -0.0312757632538 -0.3222018964634 1.0
N      2  0.2482815524291  0.0312757632538  0.3222018964634 1.0
N      2  0.2482815524291 -0.3222018964634 -0.0312757632538 1.0
N      2  0.2482815524291  0.3222018964634  0.0312757632538 1.0
END
