TITL LiN2-230326-185851-ea6dfa -0.0151 102.043395 -2.22440581E+003 0 0  9 (Cm) n - 1
REM
REM Run started: Sun, 26 Mar 2023 19:04:26 +0100 in /scratch/scratch/uccabz1/launch_tmp_michael/launcher_2023-03-26-17-58-50-998208
REM CASTEP 21.1 from code version cdfb9687+ bz-changes Mon Jan 4 11:18:28 2021 +0000
REM Functional Perdew Burke Ernzerhof Relativity Koelling-Harmon Dispersion off
REM Cut-off 340.0000 eV Grid scale 1.7500 Gmax 16.5316 1/A FBSC none
REM MP grid 7 3 2 Offset 0.000 0.000 0.000 No. kpts 20 Spacing 0.07
REM Total runtime: 357.99 s
REM Overall efficiency: 68.875 %
REM
REM LiN2.cell (b953e92e767f3f2c67521e63ea917690)
REM ## AIRSS Version 0.9.3 July 2022 commit v0.9.3-8-ga1e635fa32177e30cc
REM compiler GCC version 4.9.2
REM options -cpp -iprefix /scratch/UCL/applications/gcc/4.9.2/bin/../lib/gcc/x86_64-unknown-linux-gnu/4.9.2/ -mtune=corei7 -march=x86-64 -g -Og
REM COMMAND_LINE
REM seed 1135104498 157387961 -741678919 -1563062556 -1788065316 1780039165 -890140136 -1881697920 -1220387746 1939820246 1471910559 1221670708
REM
REM N 2|1.4|13|15|17|20:21(qc=5)
REM Li 1|1.3|8|9|10|10U:20(qc=5)
REM 
CELL 1.54180    2.30445    5.09891    9.17839   86.91905   76.24073   76.93977
LATT -1
SFAC Li N  
Li     1 -0.2608736747961  0.2606126370311  0.3207342385344 1.0
Li     1 -0.0002610377651 -0.2606126370311  0.3207342385344 1.0
Li     1  0.1957404019440  0.0000000000000 -0.0500655744707 1.0
N      2  0.0180331052673  0.4241165476167 -0.1380865860268 1.0
N      2  0.4421496528840 -0.4241165476167 -0.1380865860268 1.0
N      2 -0.4203834941797 -0.1239687510132  0.1546606512756 1.0
N      2  0.4556477548070  0.1239687510132  0.1546606512756 1.0
N      2 -0.5597006127180 -0.4189367827256 -0.5264794165480 1.0
N      2  0.0213626045564  0.4189367827256 -0.5264794165480 1.0
END
