TITL LiN2-230326-180935-9a4c44 -0.0185 153.177406 -2.96879267E+003 0 0  12 (P2) n - 1
REM
REM Run started: Sun, 26 Mar 2023 18:14:47 +0100 in /scratch/scratch/uccabz1/launch_tmp_michael/launcher_2023-03-26-17-09-35-629374
REM CASTEP 21.1 from code version cdfb9687+ bz-changes Mon Jan 4 11:18:28 2021 +0000
REM Functional Perdew Burke Ernzerhof Relativity Koelling-Harmon Dispersion off
REM Cut-off 340.0000 eV Grid scale 1.7500 Gmax 16.5316 1/A FBSC none
REM MP grid 4 4 2 Offset 0.000 0.000 0.000 No. kpts 8 Spacing 0.07
REM Total runtime: 327.25 s
REM Overall efficiency: 64.75 %
REM
REM LiN2.cell (b953e92e767f3f2c67521e63ea917690)
REM ## AIRSS Version 0.9.3 July 2022 commit v0.9.3-8-ga1e635fa32177e30cc
REM compiler GCC version 4.9.2
REM options -cpp -iprefix /scratch/UCL/applications/gcc/4.9.2/bin/../lib/gcc/x86_64-unknown-linux-gnu/4.9.2/ -mtune=corei7 -march=x86-64 -g -Og
REM COMMAND_LINE
REM seed 1011989460 -1528146968 753832435 952303456 -583946956 427266855 265600945 -1037358967 -1890699998 406314554 -1782655886 -1194305231
REM
REM N 2|1.4|13|15|17|20:21(qc=5)
REM Li 1|1.3|8|9|10|10U:20(qc=5)
REM 
CELL 1.54180    4.60916    4.73476    7.58400   90.00000   90.00000  112.25622
LATT -1
SFAC Li N  
Li     1  0.3426307376772 -0.3743995555224  0.1856012474282 1.0
Li     1 -0.3426307376772  0.3743995555224  0.1856012474282 1.0
Li     1  0.2607417067626 -0.2577410910342 -0.3352564195644 1.0
Li     1 -0.2607417067626  0.2577410910342 -0.3352564195644 1.0
N      2 -0.1177102830781 -0.1149104330179 -0.3526941022193 1.0
N      2  0.1177102830781  0.1149104330179 -0.3526941022193 1.0
N      2 -0.4200069422632  0.4277915943105 -0.1125570439103 1.0
N      2  0.4200069422632 -0.4277915943105 -0.1125570439103 1.0
N      2  0.1966553310298  0.1761537092511  0.2604160277641 1.0
N      2 -0.1966553310298 -0.1761537092511  0.2604160277641 1.0
N      2 -0.1155180198840  0.1342909881911  0.2607038905018 1.0
N      2  0.1155180198840 -0.1342909881911  0.2607038905018 1.0
END
