TITL LiN2-230326-163922-ee08af -0.0199 119.585332 -2.22740091E+003 0 0  9 (P-1) n - 1
REM
REM Run started: Sun, 26 Mar 2023 16:45:31 +0100 in /scratch/scratch/uccabz1/launch_tmp_michael/launcher_2023-03-26-15-39-22-175259
REM CASTEP 21.1 from code version cdfb9687+ bz-changes Mon Jan 4 11:18:28 2021 +0000
REM Functional Perdew Burke Ernzerhof Relativity Koelling-Harmon Dispersion off
REM Cut-off 340.0000 eV Grid scale 1.7500 Gmax 16.5316 1/A FBSC none
REM MP grid 5 3 3 Offset 0.000 0.000 0.000 No. kpts 23 Spacing 0.07
REM Total runtime: 407.28 s
REM Overall efficiency: 77.375 %
REM
REM LiN2.cell (b953e92e767f3f2c67521e63ea917690)
REM ## AIRSS Version 0.9.3 July 2022 commit v0.9.3-8-ga1e635fa32177e30cc
REM compiler GCC version 4.9.2
REM options -cpp -iprefix /scratch/UCL/applications/gcc/4.9.2/bin/../lib/gcc/x86_64-unknown-linux-gnu/4.9.2/ -mtune=corei7 -march=x86-64 -g -Og
REM COMMAND_LINE
REM seed 233268684 775043436 -685809137 -1289772423 2125993061 -1579845999 -1173202308 -34733740 95282439 2008534868 -405217946 -1768985573
REM
REM N 2|1.4|13|15|17|20:21(qc=5)
REM Li 1|1.3|8|9|10|10U:20(qc=5)
REM 
CELL 1.54180    3.15838    5.61609    7.65098   65.30059  102.68389   89.78205
LATT -1
SFAC Li N  
Li     1  0.3638692901975  0.6610156003966  0.2594903928444 1.0
Li     1 -0.3638692901975 -0.6610156003966 -0.2594903928444 1.0
Li     1  0.0000000000000  0.0000000000000 -0.5000000000000 1.0
N      2  0.6111765494641 -0.0839166489343 -0.2807385972215 1.0
N      2 -0.6111765494641  0.0839166489343  0.2807385972215 1.0
N      2  0.2310980738554  0.2843285990563 -0.0742123806342 1.0
N      2 -0.2310980738554 -0.2843285990563  0.0742123806342 1.0
N      2  0.3094354647944  0.1858187905476  0.1031915933603 1.0
N      2 -0.3094354647944 -0.1858187905476 -0.1031915933603 1.0
END
