TITL LiN2-230326-180000-e4d896 -0.0252 122.261560 -2.96523508E+003 0 0  12 (P3) n - 1
REM
REM Run started: Sun, 26 Mar 2023 18:04:07 +0100 in /scratch/scratch/uccabz1/launch_tmp_michael/launcher_2023-03-26-16-59-59-929111
REM CASTEP 21.1 from code version cdfb9687+ bz-changes Mon Jan 4 11:18:28 2021 +0000
REM Functional Perdew Burke Ernzerhof Relativity Koelling-Harmon Dispersion off
REM Cut-off 340.0000 eV Grid scale 1.7500 Gmax 16.5316 1/A FBSC none
REM MP grid 6 3 3 Offset 0.000 0.000 0.000 No. kpts 15 Spacing 0.07
REM Total runtime: 259.86 s
REM Overall efficiency: 81.8571 %
REM
REM LiN2.cell (b953e92e767f3f2c67521e63ea917690)
REM ## AIRSS Version 0.9.3 July 2022 commit v0.9.3-8-ga1e635fa32177e30cc
REM compiler GCC version 4.9.2
REM options -cpp -iprefix /scratch/UCL/applications/gcc/4.9.2/bin/../lib/gcc/x86_64-unknown-linux-gnu/4.9.2/ -mtune=corei7 -march=x86-64 -g -Og
REM COMMAND_LINE
REM seed 1923331592 832943242 1162404207 1000476565 -293650853 -1090989244 1085004692 1190507867 -1316019547 1883967150 -1143134419 -1487334227
REM
REM N 2|1.4|13|15|17|20:21(qc=5)
REM Li 1|1.3|8|9|10|10U:20(qc=5)
REM 
CELL 1.54180    2.77341    7.13464    7.13464  120.00000   90.00000   90.00000
LATT -1
SFAC Li N  
Li     1 -0.0366787805630 -0.5027949823185  0.0963532838716 1.0
Li     1 -0.0366787805630 -0.0963532838716 -0.5991481661902 1.0
Li     1 -0.0366787805630  0.5991481661902  0.5027949823185 1.0
Li     1  0.1782678567240 -0.0000000333333  0.0000000333333 1.0
N      2  0.4743763823562  0.5521970231667 -0.1571210596346 1.0
N      2  0.4743763823562  0.1571210596346 -0.2906818171986 1.0
N      2  0.4743763823562  0.2906818171986 -0.5521970231667 1.0
N      2 -0.4916466560345  0.1950904385356 -0.1040755577304 1.0
N      2 -0.4916466560345  0.1040755577304  0.2991660962660 1.0
N      2 -0.4916466560345 -0.2991660962660 -0.1950904385356 1.0
N      2 -0.5399041401094 -0.3333333666667  0.3333333666667 1.0
N      2 -0.3340249538906  0.3333333000000 -0.3333333000000 1.0
END
