TITL LiN2-230326-162629-d0b04a -0.0770 238.861812 -4.45480338E+003 0 0  18 (Cm) n - 1
REM
REM Run started: Sun, 26 Mar 2023 16:53:19 +0100 in /scratch/scratch/uccabz1/launch_tmp_michael/launcher_2023-03-26-15-26-29-770439
REM CASTEP 21.1 from code version cdfb9687+ bz-changes Mon Jan 4 11:18:28 2021 +0000
REM Functional Perdew Burke Ernzerhof Relativity Koelling-Harmon Dispersion off
REM Cut-off 340.0000 eV Grid scale 1.7500 Gmax 16.5316 1/A FBSC none
REM MP grid 3 3 3 Offset 0.000 0.000 0.000 No. kpts 10 Spacing 0.07
REM Total runtime: 1757.56 s
REM Overall efficiency: 78.9167 %
REM
REM LiN2.cell (b953e92e767f3f2c67521e63ea917690)
REM ## AIRSS Version 0.9.3 July 2022 commit v0.9.3-8-ga1e635fa32177e30cc
REM compiler GCC version 4.9.2
REM options -cpp -iprefix /scratch/UCL/applications/gcc/4.9.2/bin/../lib/gcc/x86_64-unknown-linux-gnu/4.9.2/ -mtune=corei7 -march=x86-64 -g -Og
REM COMMAND_LINE
REM seed -1525411354 1980163310 -1764866259 638075177 478545354 -672071037 1126118989 480847443 2109687888 -1908636943 -1144148730 693302728
REM
REM N 2|1.4|13|15|17|20:21(qc=5)
REM Li 1|1.3|8|9|10|10U:20(qc=5)
REM 
CELL 1.54180    7.05453    7.07299    6.64145   73.78854   57.92023   58.28662
LATT -1
SFAC Li N  
Li     1  0.3122028391139  0.0770896348452 -0.3053782524838 1.0
Li     1  0.0068245866301  0.0770896348452  0.3053782524838 1.0
Li     1 -0.2389151609329 -0.0623071921668 -0.3117579708794 1.0
Li     1  0.4493268681877 -0.0623071921668  0.3117579708794 1.0
Li     1  0.1588552044507 -0.3478071252004  0.3547354268849 1.0
Li     1 -0.4864093686644 -0.3478071252004 -0.3547354268849 1.0
N      2  0.0287799811658  0.3272314863741  0.6548018602404 1.0
N      2  0.6835818414062  0.3272314863741 -0.6548018602404 1.0
N      2  0.0207495316488 -0.1362404291373 -0.2341668089451 1.0
N      2 -0.2134172772963 -0.1362404291373  0.2341668089451 1.0
N      2  0.1398790814405 -0.1487329057745 -0.1248913926987 1.0
N      2  0.0149876887418 -0.1487329057745  0.1248913926987 1.0
N      2 -0.1744091438255  0.4328303648809 -0.3249102523211 1.0
N      2 -0.4993193961466  0.4328303648809  0.3249102523211 1.0
N      2  0.2873254099909  0.1857175631427  0.1056796004847 1.0
N      2  0.3930050104755  0.1857175631427 -0.1056796004847 1.0
N      2  0.1344227771665 -0.1301379969640  0.5312047492809 1.0
N      2 -0.3343724735527 -0.1301379969640 -0.5312047492809 1.0
END
