TITL LiN2-230326-163619-39cb3d -0.1029 324.489967 -2.96562660E+003 0 0  12 (R3) n - 1
REM
REM Run started: Sun, 26 Mar 2023 17:01:20 +0100 in /scratch/scratch/uccabz1/launch_tmp_michael/launcher_2023-03-26-15-36-19-077899
REM CASTEP 21.1 from code version cdfb9687+ bz-changes Mon Jan 4 11:18:28 2021 +0000
REM Functional Perdew Burke Ernzerhof Relativity Koelling-Harmon Dispersion off
REM Cut-off 340.0000 eV Grid scale 1.7500 Gmax 16.5316 1/A FBSC none
REM MP grid 3 3 3 Offset 0.000 0.000 0.000 No. kpts 6 Spacing 0.07
REM Total runtime: 1906.33 s
REM Overall efficiency: 61.1667 %
REM
REM LiN2.cell (b953e92e767f3f2c67521e63ea917690)
REM ## AIRSS Version 0.9.3 July 2022 commit v0.9.3-8-ga1e635fa32177e30cc
REM compiler GCC version 4.9.2
REM options -cpp -iprefix /scratch/UCL/applications/gcc/4.9.2/bin/../lib/gcc/x86_64-unknown-linux-gnu/4.9.2/ -mtune=corei7 -march=x86-64 -g -Og
REM COMMAND_LINE
REM seed -1802831545 -236525411 -713806166 -670440410 -220234535 -1917146560 -214178660 -228727427 2084946369 858874142 22414610 2084818823
REM
REM N 2|1.4|13|15|17|20:21(qc=5)
REM Li 1|1.3|8|9|10|10U:20(qc=5)
REM 
CELL 1.54180   10.59720   10.59720   10.59720   33.59105   33.59105   33.59105
LATT -1
SFAC Li N  
Li     1  0.6462944901366 -0.3985573208008  0.1492188105876 1.0
Li     1 -0.3985573208008  0.1492188105876  0.6462944901366 1.0
Li     1  0.1492188105876  0.6462944901366 -0.3985573208008 1.0
Li     1  0.3733231320210  0.3733231320210  0.3733231320210 1.0
N      2 -0.6795588496601  0.0452048393821  0.6067007519203 1.0
N      2  0.0452048393821  0.6067007519203 -0.6795588496601 1.0
N      2  0.6067007519203 -0.6795588496601  0.0452048393821 1.0
N      2 -0.3021366626526  0.2986313345289 -0.1090231073881 1.0
N      2  0.2986313345289 -0.1090231073881 -0.3021366626526 1.0
N      2 -0.1090231073881 -0.3021366626526  0.2986313345289 1.0
N      2 -0.1954666750932 -0.1954666750932 -0.1954666750932 1.0
N      2  0.4358212570182  0.4358212570182  0.4358212570182 1.0
END
