TITL LiN2-230326-195109-76ec78 -0.0199 60.607532 -1.48601145E+003 0 0  6 (Pmc21) n - 1
REM
REM Run started: Sun, 26 Mar 2023 19:52:11 +0100 in /scratch/scratch/uccabz1/launch_tmp_michael/launcher_2023-03-26-18-51-09-252807
REM CASTEP 21.1 from code version cdfb9687+ bz-changes Mon Jan 4 11:18:28 2021 +0000
REM Functional Perdew Burke Ernzerhof Relativity Koelling-Harmon Dispersion off
REM Cut-off 340.0000 eV Grid scale 1.7500 Gmax 16.5316 1/A FBSC none
REM MP grid 5 4 3 Offset 0.000 0.000 0.000 No. kpts 12 Spacing 0.07
REM Total runtime: 75.61 s
REM Overall efficiency: 45.5 %
REM
REM LiN2.cell (b953e92e767f3f2c67521e63ea917690)
REM ## AIRSS Version 0.9.3 July 2022 commit v0.9.3-8-ga1e635fa32177e30cc
REM compiler GCC version 4.9.2
REM options -cpp -iprefix /scratch/UCL/applications/gcc/4.9.2/bin/../lib/gcc/x86_64-unknown-linux-gnu/4.9.2/ -mtune=corei7 -march=x86-64 -g -Og
REM COMMAND_LINE
REM seed -1507631219 -796515179 -797664338 1323908378 -1623847360 -425675598 -699474284 -933085993 543008553 685147337 -456697109 853937645
REM
REM N 2|1.4|13|15|17|20:21(qc=5)
REM Li 1|1.3|8|9|10|10U:20(qc=5)
REM 
CELL 1.54180    2.94215    4.00891    5.13849   90.00000   90.00000   90.00000
LATT -1
SFAC Li N  
Li     1  0.2787154828951 -0.5000000000000  0.1988251650711 1.0
Li     1 -0.2787154828951  0.5000000000000 -0.3011748349289 1.0
N      2 -0.2429639712593  0.1477093050315  0.0409544674644 1.0
N      2  0.2429639712593 -0.1477093050315 -0.4590455325356 1.0
N      2  0.2429639712593  0.1477093050315 -0.4590455325356 1.0
N      2 -0.2429639712593 -0.1477093050315  0.0409544674644 1.0
END
