TITL LiN2-230326-183016-ee152d 0.0398 97.857233 -2.22806445E+003 0 0  9 (P-6) n - 1
REM
REM Run started: Sun, 26 Mar 2023 18:37:02 +0100 in /scratch/scratch/uccabz1/launch_tmp_michael/launcher_2023-03-26-17-30-16-589364
REM CASTEP 21.1 from code version cdfb9687+ bz-changes Mon Jan 4 11:18:28 2021 +0000
REM Functional Perdew Burke Ernzerhof Relativity Koelling-Harmon Dispersion off
REM Cut-off 340.0000 eV Grid scale 1.7500 Gmax 16.5316 1/A FBSC none
REM MP grid 6 3 3 Offset 0.000 0.000 0.000 No. kpts 15 Spacing 0.07
REM Total runtime: 409.72 s
REM Overall efficiency: 57.1429 %
REM
REM LiN2.cell (b953e92e767f3f2c67521e63ea917690)
REM ## AIRSS Version 0.9.3 July 2022 commit v0.9.3-8-ga1e635fa32177e30cc
REM compiler GCC version 4.9.2
REM options -cpp -iprefix /scratch/UCL/applications/gcc/4.9.2/bin/../lib/gcc/x86_64-unknown-linux-gnu/4.9.2/ -mtune=corei7 -march=x86-64 -g -Og
REM COMMAND_LINE
REM seed -165063000 -373534774 -2114692642 70676600 142983561 -1110212246 -44412014 -1737890398 -240869476 -1047807177 2088248167 -272235604
REM
REM N 2|1.4|13|15|17|20:21(qc=5)
REM Li 1|1.3|8|9|10|10U:20(qc=5)
REM 
CELL 1.54180    2.73791    6.42424    6.42424  120.00000   90.00000   90.00000
LATT -1
SFAC Li N  
Li     1  0.4537301887938 -0.0306340890759  0.3624025624496 1.0
Li     1  0.4537301887938  0.3930366515254  0.0306340890759 1.0
Li     1  0.4537301887938 -0.3624025624496 -0.3930366515254 1.0
N      2 -0.0449179427557  0.2217030372025  0.3617473292677 1.0
N      2 -0.0449179427557  0.1400442920652 -0.2217030372025 1.0
N      2 -0.0449179427557 -0.3617473292677 -0.1400442920652 1.0
N      2 -0.0449571460381 -0.3037277439222  0.0680092906081 1.0
N      2 -0.0449571460381  0.3717370345303  0.3037277439222 1.0
N      2 -0.0449571460381 -0.0680092906081 -0.3717370345303 1.0
END
