TITL LiN2-230326-201232-bb98ae -0.0041 70.437832 -1.48459876E+003 0 0  6 (P42/mmc) n - 1
REM
REM Run started: Sun, 26 Mar 2023 20:13:34 +0100 in /scratch/scratch/uccabz1/launch_tmp_michael/launcher_2023-03-26-19-12-32-308563
REM CASTEP 21.1 from code version cdfb9687+ bz-changes Mon Jan 4 11:18:28 2021 +0000
REM Functional Perdew Burke Ernzerhof Relativity Koelling-Harmon Dispersion off
REM Cut-off 340.0000 eV Grid scale 1.7500 Gmax 16.5316 1/A FBSC none
REM MP grid 4 4 4 Offset 0.000 0.000 0.000 No. kpts 6 Spacing 0.07
REM Total runtime: 64.88 s
REM Overall efficiency: 54.6667 %
REM
REM LiN2.cell (b953e92e767f3f2c67521e63ea917690)
REM ## AIRSS Version 0.9.3 July 2022 commit v0.9.3-8-ga1e635fa32177e30cc
REM compiler GCC version 4.9.2
REM options -cpp -iprefix /scratch/UCL/applications/gcc/4.9.2/bin/../lib/gcc/x86_64-unknown-linux-gnu/4.9.2/ -mtune=corei7 -march=x86-64 -g -Og
REM COMMAND_LINE
REM seed -1214421763 560064039 1953075909 -1816969144 1990874676 -1490589185 -208085287 -334880230 -1399192446 861506776 -2094938404 1052555916
REM
REM N 2|1.4|13|15|17|20:21(qc=5)
REM Li 1|1.3|8|9|10|10U:20(qc=5)
REM 
CELL 1.54180    3.95627    3.95627    4.50023   90.00000   90.00000   90.00000
LATT -1
SFAC Li N  
Li     1 -0.5000000000000 -0.0000000000000  0.2550105984204 1.0
Li     1  0.0000000000000  0.5000000000000 -0.2550105984204 1.0
N      2  0.3474269605974 -0.0000000000000 -0.2500495535629 1.0
N      2 -0.3474269605974 -0.0000000000000 -0.2500495535629 1.0
N      2  0.0000000000000  0.3474269605974  0.2500495535629 1.0
N      2  0.0000000000000 -0.3474269605974  0.2500495535629 1.0
END
