TITL LiN2-230326-183552-74f22f -0.0123 223.159100 -4.45552824E+003 0 0  18 (P31) n - 1
REM
REM Run started: Sun, 26 Mar 2023 18:51:46 +0100 in /scratch/scratch/uccabz1/launch_tmp_michael/launcher_2023-03-26-17-35-52-147580
REM CASTEP 21.1 from code version cdfb9687+ bz-changes Mon Jan 4 11:18:28 2021 +0000
REM Functional Perdew Burke Ernzerhof Relativity Koelling-Harmon Dispersion off
REM Cut-off 340.0000 eV Grid scale 1.7500 Gmax 16.5316 1/A FBSC none
REM MP grid 4 4 2 Offset 0.000 0.000 0.000 No. kpts 16 Spacing 0.07
REM Total runtime: 990.58 s
REM Overall efficiency: 91.5 %
REM
REM LiN2.cell (b953e92e767f3f2c67521e63ea917690)
REM ## AIRSS Version 0.9.3 July 2022 commit v0.9.3-8-ga1e635fa32177e30cc
REM compiler GCC version 4.9.2
REM options -cpp -iprefix /scratch/UCL/applications/gcc/4.9.2/bin/../lib/gcc/x86_64-unknown-linux-gnu/4.9.2/ -mtune=corei7 -march=x86-64 -g -Og
REM COMMAND_LINE
REM seed -100911569 2016838434 1370839264 741931164 1996912430 404260410 1643859754 -1349969202 -254562408 1614374142 -164854333 -2080567801
REM
REM N 2|1.4|13|15|17|20:21(qc=5)
REM Li 1|1.3|8|9|10|10U:20(qc=5)
REM 
CELL 1.54180    4.34307    4.34307   13.66127   90.00000   90.00000  120.00000
LATT -1
SFAC Li N  
Li     1 -0.0521359661453  0.0112077740552 -0.0083140264456 1.0
Li     1 -0.0112077740552 -0.0633437402005  0.3250193068877 1.0
Li     1  0.0633437402005  0.0521359661453 -0.3416473597789 1.0
Li     1 -0.2819620279232  0.3425501203406 -0.2429009141356 1.0
Li     1 -0.3425501203406  0.3754878517362  0.0904324191978 1.0
Li     1 -0.3754878517362  0.2819620279232  0.4237657525311 1.0
N      2 -0.1915382758860  0.1987779938423  0.2470820108273 1.0
N      2 -0.1987779938423 -0.3903162697283 -0.4195846558394 1.0
N      2  0.3903162697283  0.1915382758860 -0.0862513225061 1.0
N      2  0.3013169348926 -0.4750855120386 -0.2677425677756 1.0
N      2  0.4750855120386 -0.2235975530688  0.0655907655577 1.0
N      2  0.2235975530688 -0.3013169348926  0.3989240988910 1.0
N      2  0.2253035570310 -0.5773183272582  0.3952823049373 1.0
N      2  0.5773183272582 -0.1973781157108 -0.2713843617294 1.0
N      2  0.1973781157108 -0.2253035570310  0.0619489716039 1.0
N      2 -0.2343105497854 -0.5522077358882  0.2451071592589 1.0
N      2  0.5522077358882  0.3178971861028 -0.4215595074077 1.0
N      2 -0.3178971861028  0.2343105497854 -0.0882261740744 1.0
END
