TITL LiN2-230326-182530-a6f212 0.0227 106.362580 -2.22727043E+003 0 0  9 (P31m) n - 1
REM
REM Run started: Sun, 26 Mar 2023 18:26:54 +0100 in /scratch/scratch/uccabz1/launch_tmp_michael/launcher_2023-03-26-17-25-30-091683
REM CASTEP 21.1 from code version cdfb9687+ bz-changes Mon Jan 4 11:18:28 2021 +0000
REM Functional Perdew Burke Ernzerhof Relativity Koelling-Harmon Dispersion off
REM Cut-off 340.0000 eV Grid scale 1.7500 Gmax 16.5316 1/A FBSC none
REM MP grid 3 3 5 Offset 0.000 0.000 0.000 No. kpts 13 Spacing 0.07
REM Total runtime: 139.82 s
REM Overall efficiency: 53 %
REM
REM LiN2.cell (b953e92e767f3f2c67521e63ea917690)
REM ## AIRSS Version 0.9.3 July 2022 commit v0.9.3-8-ga1e635fa32177e30cc
REM compiler GCC version 4.9.2
REM options -cpp -iprefix /scratch/UCL/applications/gcc/4.9.2/bin/../lib/gcc/x86_64-unknown-linux-gnu/4.9.2/ -mtune=corei7 -march=x86-64 -g -Og
REM COMMAND_LINE
REM seed -300945880 -396604007 -1762966974 -1094569317 1613823668 515708337 1767006244 -255868822 1970113152 -914184133 1770288676 35844286
REM
REM N 2|1.4|13|15|17|20:21(qc=5)
REM Li 1|1.3|8|9|10|10U:20(qc=5)
REM 
CELL 1.54180    6.01812    6.01812    3.39107   90.00000   90.00000  120.00000
LATT -1
SFAC Li N  
Li     1 -0.0015537828628  0.3355412804601 -0.4281243827871 1.0
Li     1  0.3370950633229  0.0015537828628 -0.4281243827871 1.0
Li     1 -0.3355412804601 -0.3370950633229 -0.4281243827871 1.0
N      2  0.3331785136128  0.2112880463334  0.0193611868800 1.0
N      2 -0.1218904672794 -0.3331785136128  0.0193611868800 1.0
N      2 -0.2112880463334  0.1218904672794  0.0193611868800 1.0
N      2 -0.3523740335127 -0.0193475029047  0.2680800959072 1.0
N      2  0.3330265306080  0.3523740335127  0.2680800959072 1.0
N      2  0.0193475029047 -0.3330265306080  0.2680800959072 1.0
END
