TITL LiN2-230326-165849-8e77e6 -0.0056 116.887265 -2.97197884E+003 0 0  12 (Cmcm) n - 1
REM
REM Run started: Sun, 26 Mar 2023 17:02:01 +0100 in /scratch/scratch/uccabz1/launch_tmp_michael/launcher_2023-03-26-15-58-49-698864
REM CASTEP 21.1 from code version cdfb9687+ bz-changes Mon Jan 4 11:18:28 2021 +0000
REM Functional Perdew Burke Ernzerhof Relativity Koelling-Harmon Dispersion off
REM Cut-off 340.0000 eV Grid scale 1.7500 Gmax 16.5316 1/A FBSC none
REM MP grid 5 3 2 Offset 0.000 0.000 0.000 No. kpts 6 Spacing 0.07
REM Total runtime: 202.21 s
REM Overall efficiency: 54.25 %
REM
REM LiN2.cell (b953e92e767f3f2c67521e63ea917690)
REM ## AIRSS Version 0.9.3 July 2022 commit v0.9.3-8-ga1e635fa32177e30cc
REM compiler GCC version 4.9.2
REM options -cpp -iprefix /scratch/UCL/applications/gcc/4.9.2/bin/../lib/gcc/x86_64-unknown-linux-gnu/4.9.2/ -mtune=corei7 -march=x86-64 -g -Og
REM COMMAND_LINE
REM seed 2091388860 1262559722 -1621804410 -361312057 1824287972 219698259 1701384613 -2022029044 -1828417051 719642574 1629639739 979424196
REM
REM N 2|1.4|13|15|17|20:21(qc=5)
REM Li 1|1.3|8|9|10|10U:20(qc=5)
REM 
CELL 1.54180    2.95917    4.99266    7.91162   90.00000   90.00000   90.00000
LATT -1
SFAC Li N  
Li     1  0.3434795734446 -0.2499031352788 -0.2509482416609 1.0
Li     1 -0.1565204265554  0.2499031352788 -0.2490517583391 1.0
Li     1 -0.1565204265554  0.2499031352788  0.2490517583391 1.0
Li     1  0.3434795734446 -0.2499031352788  0.2509482416609 1.0
N      2 -0.1596149239233  0.5888726929610  0.0750315916440 1.0
N      2  0.3403850760767 -0.5888726929610  0.4249684083560 1.0
N      2  0.3403850760767 -0.5888726929610 -0.4249684083560 1.0
N      2 -0.1596149239233  0.5888726929610 -0.0750315916440 1.0
N      2 -0.1607921495212 -0.0880218862582 -0.4249500240415 1.0
N      2 -0.6607921495212  0.0880218862582 -0.0750499759585 1.0
N      2 -0.6607921495212  0.0880218862582  0.0750499759585 1.0
N      2 -0.1607921495212 -0.0880218862582  0.4249500240415 1.0
END
