TITL LiN2-230326-175437-af548d 0.0716 148.615742 -2.22515478E+003 0 0  9 (P4) n - 1
REM
REM Run started: Sun, 26 Mar 2023 17:56:02 +0100 in /scratch/scratch/uccabz1/launch_tmp_michael/launcher_2023-03-26-16-54-37-171117
REM CASTEP 21.1 from code version cdfb9687+ bz-changes Mon Jan 4 11:18:28 2021 +0000
REM Functional Perdew Burke Ernzerhof Relativity Koelling-Harmon Dispersion off
REM Cut-off 340.0000 eV Grid scale 1.7500 Gmax 16.5316 1/A FBSC none
REM MP grid 3 3 4 Offset 0.000 0.000 0.000 No. kpts 6 Spacing 0.07
REM Total runtime: 103.29 s
REM Overall efficiency: 53.3333 %
REM
REM LiN2.cell (b953e92e767f3f2c67521e63ea917690)
REM ## AIRSS Version 0.9.3 July 2022 commit v0.9.3-8-ga1e635fa32177e30cc
REM compiler GCC version 4.9.2
REM options -cpp -iprefix /scratch/UCL/applications/gcc/4.9.2/bin/../lib/gcc/x86_64-unknown-linux-gnu/4.9.2/ -mtune=corei7 -march=x86-64 -g -Og
REM COMMAND_LINE
REM seed -130262994 -1084461461 -1388682466 1121367315 1085588842 -1364108997 -405393159 -843129830 -621830853 2035055358 1612106404 1823083272
REM
REM N 2|1.4|13|15|17|20:21(qc=5)
REM Li 1|1.3|8|9|10|10U:20(qc=5)
REM 
CELL 1.54180    6.05075    6.05075    4.05926   90.00000   90.00000   90.00000
LATT -1
SFAC Li N  
Li     1  0.0000000000000 -0.5000000000000 -0.0589338216691 1.0
Li     1 -0.5000000000000 -0.0000000000000 -0.0589338216691 1.0
Li     1 -0.5000000000000  0.5000000000000  0.4500912880932 1.0
N      2  0.1726097506738 -0.6021357556304 -0.5108029630394 1.0
N      2 -0.1726097506738  0.6021357556304 -0.5108029630394 1.0
N      2 -0.6021357556304 -0.1726097506738 -0.5108029630394 1.0
N      2  0.6021357556304  0.1726097506738 -0.5108029630394 1.0
N      2  0.0000000000000 -0.5000000000000  0.4448989537014 1.0
N      2 -0.5000000000000 -0.0000000000000  0.4448989537014 1.0
END
