TITL LiN2-230326-195756-684f18 0.0260 225.393722 -4.45473139E+003 0 0  18 (P21/c) n - 1
REM
REM Run started: Sun, 26 Mar 2023 20:04:52 +0100 in /scratch/scratch/uccabz1/launch_tmp_michael/launcher_2023-03-26-18-57-56-420462
REM CASTEP 21.1 from code version cdfb9687+ bz-changes Mon Jan 4 11:18:28 2021 +0000
REM Functional Perdew Burke Ernzerhof Relativity Koelling-Harmon Dispersion off
REM Cut-off 340.0000 eV Grid scale 1.7500 Gmax 16.5316 1/A FBSC none
REM MP grid 4 2 2 Offset 0.000 0.000 0.000 No. kpts 4 Spacing 0.07
REM Total runtime: 443.33 s
REM Overall efficiency: 65.3333 %
REM
REM LiN2.cell (b953e92e767f3f2c67521e63ea917690)
REM ## AIRSS Version 0.9.3 July 2022 commit v0.9.3-8-ga1e635fa32177e30cc
REM compiler GCC version 4.9.2
REM options -cpp -iprefix /scratch/UCL/applications/gcc/4.9.2/bin/../lib/gcc/x86_64-unknown-linux-gnu/4.9.2/ -mtune=corei7 -march=x86-64 -g -Og
REM COMMAND_LINE
REM seed -930404619 -1943947442 1630093868 -1110762193 776116828 1089121387 -2079202420 62139273 -851151188 -66865678 886501911 740651758
REM
REM N 2|1.4|13|15|17|20:21(qc=5)
REM Li 1|1.3|8|9|10|10U:20(qc=5)
REM 
CELL 1.54180    3.81009    7.59405    8.40498   90.00000   67.94473   90.00000
LATT -1
SFAC Li N  
Li     1 -0.3262727676140 -0.3697740036789 -0.1340129739089 1.0
Li     1 -0.1737272323860  0.1302259963211 -0.3659870260911 1.0
Li     1  0.3262727676140  0.3697740036789  0.1340129739089 1.0
Li     1  0.1737272323860 -0.1302259963211  0.3659870260911 1.0
Li     1 -0.0000000000000 -0.0000000000000 -0.0000000000000 1.0
Li     1 -0.5000000000000  0.5000000000000 -0.5000000000000 1.0
N      2  0.0564931730922 -0.3799477869730 -0.5463854947717 1.0
N      2  0.4435068269078  0.1200522130270  0.0463854947717 1.0
N      2 -0.0564931730922  0.3799477869730  0.5463854947717 1.0
N      2 -0.4435068269078 -0.1200522130270 -0.0463854947717 1.0
N      2  0.1449290975723 -0.4640850833874 -0.0419486083258 1.0
N      2  0.3550709024277  0.0359149166126  0.5419486083258 1.0
N      2 -0.1449290975723  0.4640850833874  0.0419486083258 1.0
N      2 -0.3550709024277 -0.0359149166126 -0.5419486083258 1.0
N      2 -0.0977052253102 -0.4522113432986  0.6174233998178 1.0
N      2 -0.4022947746898  0.0477886567014 -0.1174233998178 1.0
N      2  0.0977052253102  0.4522113432986 -0.6174233998178 1.0
N      2  0.4022947746898 -0.0477886567014  0.1174233998178 1.0
END
