TITL LiN2-230326-151118-fec49f -0.0007 149.640474 -2.22434047E+003 0 0  9 (Cm) n - 1
REM
REM Run started: Sun, 26 Mar 2023 15:23:05 +0100 in /scratch/scratch/uccabz1/launch_tmp_michael/launcher_2023-03-26-14-11-18-644292
REM CASTEP 21.1 from code version cdfb9687+ bz-changes Mon Jan 4 11:18:28 2021 +0000
REM Functional Perdew Burke Ernzerhof Relativity Koelling-Harmon Dispersion off
REM Cut-off 340.0000 eV Grid scale 1.7500 Gmax 16.5316 1/A FBSC none
REM MP grid 6 3 3 Offset 0.000 0.000 0.000 No. kpts 18 Spacing 0.07
REM Total runtime: 809.72 s
REM Overall efficiency: 86.8462 %
REM
REM LiN2.cell (b953e92e767f3f2c67521e63ea917690)
REM ## AIRSS Version 0.9.3 July 2022 commit v0.9.3-8-ga1e635fa32177e30cc
REM compiler GCC version 4.9.2
REM options -cpp -iprefix /scratch/UCL/applications/gcc/4.9.2/bin/../lib/gcc/x86_64-unknown-linux-gnu/4.9.2/ -mtune=corei7 -march=x86-64 -g -Og
REM COMMAND_LINE
REM seed -1271368439 161964240 687459477 -1446837709 -420190390 2131668697 737321617 -762368557 -117449607 1833366785 -428059930 1890733391
REM
REM N 2|1.4|13|15|17|20:21(qc=5)
REM Li 1|1.3|8|9|10|10U:20(qc=5)
REM 
CELL 1.54180    3.39250    7.51650    7.51650   93.26281  115.34094  115.34094
LATT -1
SFAC Li N  
Li     1  0.2215996930188  0.1020342324651 -0.3340188078001 1.0
Li     1  0.2215996930188 -0.3340188078001  0.1020342324651 1.0
Li     1 -0.1924891805117  0.7101217060619  0.7101217060619 1.0
N      2  0.1102017829371 -0.1676660114069  0.5415148584727 1.0
N      2  0.1102017829371  0.5415148584727 -0.1676660114069 1.0
N      2 -0.4693824002190 -0.4647476003612 -0.1188084144693 1.0
N      2 -0.4693824002190 -0.1188084144693 -0.4647476003612 1.0
N      2 -0.3733467354811 -0.2031222354416  0.3934125724794 1.0
N      2 -0.3733467354811  0.3934125724794 -0.2031222354416 1.0
END
