TITL LiN2-230326-171810-f4208c 0.0170 206.905268 -2.96066745E+003 0 0  12 (P222) n - 1
REM
REM Run started: Sun, 26 Mar 2023 17:19:53 +0100 in /scratch/scratch/uccabz1/launch_tmp_michael/launcher_2023-03-26-16-18-10-634578
REM CASTEP 21.1 from code version cdfb9687+ bz-changes Mon Jan 4 11:18:28 2021 +0000
REM Functional Perdew Burke Ernzerhof Relativity Koelling-Harmon Dispersion off
REM Cut-off 340.0000 eV Grid scale 1.7500 Gmax 16.5316 1/A FBSC none
REM MP grid 3 3 3 Offset 0.000 0.000 0.000 No. kpts 8 Spacing 0.07
REM Total runtime: 156.2 s
REM Overall efficiency: 64.8 %
REM
REM LiN2.cell (b953e92e767f3f2c67521e63ea917690)
REM ## AIRSS Version 0.9.3 July 2022 commit v0.9.3-8-ga1e635fa32177e30cc
REM compiler GCC version 4.9.2
REM options -cpp -iprefix /scratch/UCL/applications/gcc/4.9.2/bin/../lib/gcc/x86_64-unknown-linux-gnu/4.9.2/ -mtune=corei7 -march=x86-64 -g -Og
REM COMMAND_LINE
REM seed -1908252856 -272692500 -1051480702 1975353371 634132448 -204281348 -1058685251 1319930496 -1230969562 1330010140 -1971634982 -614379515
REM
REM N 2|1.4|13|15|17|20:21(qc=5)
REM Li 1|1.3|8|9|10|10U:20(qc=5)
REM 
CELL 1.54180    5.31970    5.91573    6.57470   90.00000   90.00000   90.00000
LATT -1
SFAC Li N  
Li     1  0.2189486669116  0.2966979166453 -0.1816131651025 1.0
Li     1 -0.2189486669116  0.2966979166453  0.1816131651025 1.0
Li     1  0.2189486669116 -0.2966979166453  0.1816131651025 1.0
Li     1 -0.2189486669116 -0.2966979166453 -0.1816131651025 1.0
N      2  0.1304609157412 -0.4990943736312 -0.3953952810102 1.0
N      2 -0.1304609157412 -0.4990943736312  0.3953952810102 1.0
N      2  0.1304609157412  0.4990943736312  0.3953952810102 1.0
N      2 -0.1304609157412  0.4990943736312 -0.3953952810102 1.0
N      2  0.4022576537821  0.0881853860125 -0.4210025745433 1.0
N      2 -0.4022576537821  0.0881853860125  0.4210025745433 1.0
N      2  0.4022576537821 -0.0881853860125  0.4210025745433 1.0
N      2 -0.4022576537821 -0.0881853860125 -0.4210025745433 1.0
END
