TITL LiN2-230326-202708-af221a -0.0657 236.567189 -4.45168624E+003 0 0  18 (Pmm2) n - 1
REM
REM Run started: Sun, 26 Mar 2023 20:29:18 +0100 in /scratch/scratch/uccabz1/launch_tmp_michael/launcher_2023-03-26-19-27-08-687196
REM CASTEP 21.1 from code version cdfb9687+ bz-changes Mon Jan 4 11:18:28 2021 +0000
REM Functional Perdew Burke Ernzerhof Relativity Koelling-Harmon Dispersion off
REM Cut-off 340.0000 eV Grid scale 1.7500 Gmax 16.5316 1/A FBSC none
REM MP grid 5 2 2 Offset 0.000 0.000 0.000 No. kpts 3 Spacing 0.07
REM Total runtime: 141.67 s
REM Overall efficiency: 58.5 %
REM
REM LiN2.cell (b953e92e767f3f2c67521e63ea917690)
REM ## AIRSS Version 0.9.3 July 2022 commit v0.9.3-8-ga1e635fa32177e30cc
REM compiler GCC version 4.9.2
REM options -cpp -iprefix /scratch/UCL/applications/gcc/4.9.2/bin/../lib/gcc/x86_64-unknown-linux-gnu/4.9.2/ -mtune=corei7 -march=x86-64 -g -Og
REM COMMAND_LINE
REM seed 77580399 -48239334 -1086081256 -1083688074 1953404730 1377252759 1530526298 1364304304 1285872328 1854822680 259392561 1766914448
REM
REM N 2|1.4|13|15|17|20:21(qc=5)
REM Li 1|1.3|8|9|10|10U:20(qc=5)
REM 
CELL 1.54180    3.40690    8.48861    8.18010   90.00000   90.00000   90.00000
LATT -1
SFAC Li N  
Li     1 -0.4789055500803 -0.3285337034347  0.2085339103880 1.0
Li     1 -0.4789055500803  0.3285337034347 -0.2085339103880 1.0
Li     1 -0.4789055500803 -0.3285337034347 -0.2085339103880 1.0
Li     1 -0.4789055500803  0.3285337034347  0.2085339103880 1.0
Li     1 -0.1892535863170  0.0000000000000 -0.2115411705913 1.0
Li     1 -0.1892535863170  0.0000000000000  0.2115411705913 1.0
N      2 -0.0017667677107 -0.4182272118648 -0.0845334983459 1.0
N      2 -0.0017667677107  0.4182272118648  0.0845334983459 1.0
N      2 -0.0017667677107 -0.4182272118648  0.0845334983459 1.0
N      2 -0.0017667677107  0.4182272118648 -0.0845334983459 1.0
N      2  0.3888935055961  0.4174431354600 -0.4173767581589 1.0
N      2  0.3888935055961 -0.4174431354600  0.4173767581589 1.0
N      2  0.3888935055961  0.4174431354600  0.4173767581589 1.0
N      2  0.3888935055961 -0.4174431354600 -0.4173767581589 1.0
N      2  0.3290432053534 -0.0824999600441 -0.0846633107699 1.0
N      2  0.3290432053534  0.0824999600441  0.0846633107699 1.0
N      2  0.3290432053534 -0.0824999600441  0.0846633107699 1.0
N      2  0.3290432053534  0.0824999600441 -0.0846633107699 1.0
END
