TITL LiN2-230326-173659-afb154 0.0161 120.317119 -2.22645884E+003 0 0  9 (Fmmm) n - 1
REM
REM Run started: Sun, 26 Mar 2023 17:42:16 +0100 in /scratch/scratch/uccabz1/launch_tmp_michael/launcher_2023-03-26-16-36-59-343491
REM CASTEP 21.1 from code version cdfb9687+ bz-changes Mon Jan 4 11:18:28 2021 +0000
REM Functional Perdew Burke Ernzerhof Relativity Koelling-Harmon Dispersion off
REM Cut-off 340.0000 eV Grid scale 1.7500 Gmax 16.5316 1/A FBSC none
REM MP grid 4 4 5 Offset 0.000 0.000 0.000 No. kpts 26 Spacing 0.07
REM Total runtime: 358.64 s
REM Overall efficiency: 64.1667 %
REM
REM LiN2.cell (b953e92e767f3f2c67521e63ea917690)
REM ## AIRSS Version 0.9.3 July 2022 commit v0.9.3-8-ga1e635fa32177e30cc
REM compiler GCC version 4.9.2
REM options -cpp -iprefix /scratch/UCL/applications/gcc/4.9.2/bin/../lib/gcc/x86_64-unknown-linux-gnu/4.9.2/ -mtune=corei7 -march=x86-64 -g -Og
REM COMMAND_LINE
REM seed 52678914 -2114001226 204105898 -612763274 583076529 1208321157 1615471497 -1941800794 394486209 1610061948 888458610 1288691551
REM
REM N 2|1.4|13|15|17|20:21(qc=5)
REM Li 1|1.3|8|9|10|10U:20(qc=5)
REM 
CELL 1.54180    6.42206    6.42206    4.77491  114.88258  114.88258  111.98205
LATT -1
SFAC Li N  
Li     1 -0.2525596094853  0.2525596094853  0.0000000000000 1.0
Li     1  0.2525596094853 -0.2525596094853  0.0000000000000 1.0
Li     1  0.0000000000000  0.0000000000000  0.0000000000000 1.0
N      2  0.6239776440970 -0.1508185714925  0.4732950662721 1.0
N      2 -0.1506825778250 -0.3758863622354  0.4732950662721 1.0
N      2  0.1508185714925 -0.6239776440970 -0.4732950662721 1.0
N      2  0.3758863622354  0.1506825778250 -0.4732950662721 1.0
N      2 -0.3097051483478 -0.3097051483478  0.3805897033044 1.0
N      2  0.3097051483478  0.3097051483478 -0.3805897033044 1.0
END
