TITL LiN2-230326-174250-a7f040 -0.0801 156.317051 -2.96088212E+003 0 0  12 (P3) n - 1
REM
REM Run started: Sun, 26 Mar 2023 17:46:01 +0100 in /scratch/scratch/uccabz1/launch_tmp_michael/launcher_2023-03-26-16-42-49-925585
REM CASTEP 21.1 from code version cdfb9687+ bz-changes Mon Jan 4 11:18:28 2021 +0000
REM Functional Perdew Burke Ernzerhof Relativity Koelling-Harmon Dispersion off
REM Cut-off 340.0000 eV Grid scale 1.7500 Gmax 16.5316 1/A FBSC none
REM MP grid 4 3 3 Offset 0.000 0.000 0.000 No. kpts 10 Spacing 0.07
REM Total runtime: 205.86 s
REM Overall efficiency: 62.6667 %
REM
REM LiN2.cell (b953e92e767f3f2c67521e63ea917690)
REM ## AIRSS Version 0.9.3 July 2022 commit v0.9.3-8-ga1e635fa32177e30cc
REM compiler GCC version 4.9.2
REM options -cpp -iprefix /scratch/UCL/applications/gcc/4.9.2/bin/../lib/gcc/x86_64-unknown-linux-gnu/4.9.2/ -mtune=corei7 -march=x86-64 -g -Og
REM COMMAND_LINE
REM seed 1350245819 -651608827 -1344448215 -614885406 1138784708 -1792142131 1682326913 1581607708 724591574 1093153530 296550505 1898154359
REM
REM N 2|1.4|13|15|17|20:21(qc=5)
REM Li 1|1.3|8|9|10|10U:20(qc=5)
REM 
CELL 1.54180    3.71986    6.96586    6.96586  120.00000   90.00000   90.00000
LATT -1
SFAC Li N  
Li     1  0.2790830337149  0.3097989504540  0.0623304054507 1.0
Li     1  0.2790830337149 -0.2474685450034 -0.3097989504540 1.0
Li     1  0.2790830337149 -0.0623304054507  0.2474685450034 1.0
Li     1 -0.2158116376404 -0.0000000000000  0.0000000000000 1.0
N      2  0.3306316072110  0.2231120772592 -0.4506856904819 1.0
N      2  0.3306316072110  0.3262022322589 -0.2231120772592 1.0
N      2  0.3306316072110  0.4506856904819 -0.3262022322589 1.0
N      2 -0.2088843448253  0.4590325604178  0.1782000844627 1.0
N      2 -0.2088843448253 -0.2808324759551 -0.4590325604178 1.0
N      2 -0.2088843448253 -0.1782000844627  0.2808324759551 1.0
N      2  0.2857010945208 -0.0000000000000  0.0000000000000 1.0
N      2 -0.2084581451821 -0.3333333333333  0.3333333333333 1.0
END
