TITL LiN2-230326-185255-4351bc 0.0812 206.436511 -4.45499250E+003 0 0  18 (R3) n - 1
REM
REM Run started: Sun, 26 Mar 2023 18:59:57 +0100 in /scratch/scratch/uccabz1/launch_tmp_michael/launcher_2023-03-26-17-52-55-082555
REM CASTEP 21.1 from code version cdfb9687+ bz-changes Mon Jan 4 11:18:28 2021 +0000
REM Functional Perdew Burke Ernzerhof Relativity Koelling-Harmon Dispersion off
REM Cut-off 340.0000 eV Grid scale 1.7500 Gmax 16.5316 1/A FBSC none
REM MP grid 3 3 3 Offset 0.000 0.000 0.000 No. kpts 6 Spacing 0.07
REM Total runtime: 438.4 s
REM Overall efficiency: 63.625 %
REM
REM LiN2.cell (b953e92e767f3f2c67521e63ea917690)
REM ## AIRSS Version 0.9.3 July 2022 commit v0.9.3-8-ga1e635fa32177e30cc
REM compiler GCC version 4.9.2
REM options -cpp -iprefix /scratch/UCL/applications/gcc/4.9.2/bin/../lib/gcc/x86_64-unknown-linux-gnu/4.9.2/ -mtune=corei7 -march=x86-64 -g -Og
REM COMMAND_LINE
REM seed 568516547 -1999424038 -434843892 626156331 -99136830 -532308923 1311046677 -2040113027 1100858605 594958383 527550659 228655434
REM
REM N 2|1.4|13|15|17|20:21(qc=5)
REM Li 1|1.3|8|9|10|10U:20(qc=5)
REM 
CELL 1.54180    7.15534    6.24521    6.24521  106.33282  112.45208  112.45208
LATT -1
SFAC Li N  
Li     1 -0.1600871362483  0.3167059991362  0.3100118024970 1.0
Li     1 -0.4700989387453 -0.3100118024970  0.0066941966392 1.0
Li     1 -0.4767931353845 -0.0066941966392 -0.3167059991362 1.0
Li     1 -0.2790516386170 -0.3602670494183 -0.3555523668172 1.0
Li     1  0.0765007282002  0.3555523668172 -0.0047146826012 1.0
Li     1  0.0812154108014  0.0047146826011  0.3602670494183 1.0
N      2  0.3913394893374  0.5873475625840 -0.4191769767885 1.0
N      2 -0.1894835338741  0.4191769767884  0.0065245393724 1.0
N      2 -0.1960080732466 -0.0065245393725 -0.5873475625840 1.0
N      2  0.1857713532818 -0.5853186238295  0.3894338704386 1.0
N      2 -0.2036625171568 -0.3894338704386  0.0252475057319 1.0
N      2 -0.2289100228886 -0.0252475057319  0.5853186238295 1.0
N      2  0.0332762585466  0.6224816836497 -0.2930497995372 1.0
N      2  0.3263260580838  0.2930497995372 -0.0844685168131 1.0
N      2  0.4107945748969  0.0844685168131 -0.6224816836497 1.0
N      2  0.3235630538269  0.1136548760277 -0.2158725375600 1.0
N      2  0.5394355913869  0.2158725375600  0.3295274135877 1.0
N      2  0.2099081777992 -0.3295274135877 -0.1136548760277 1.0
END
