TITL LiN2-230326-150504-5d9a22 -0.0097 74.744073 -1.48469611E+003 0 0  6 (I-42m) n - 1
REM
REM Run started: Sun, 26 Mar 2023 15:07:39 +0100 in /scratch/scratch/uccabz1/launch_tmp_michael/launcher_2023-03-26-14-05-04-730720
REM CASTEP 21.1 from code version cdfb9687+ bz-changes Mon Jan 4 11:18:28 2021 +0000
REM Functional Perdew Burke Ernzerhof Relativity Koelling-Harmon Dispersion off
REM Cut-off 340.0000 eV Grid scale 1.7500 Gmax 16.5316 1/A FBSC none
REM MP grid 5 5 3 Offset 0.000 0.000 0.000 No. kpts 24 Spacing 0.07
REM Total runtime: 174.92 s
REM Overall efficiency: 71.5 %
REM
REM LiN2.cell (b953e92e767f3f2c67521e63ea917690)
REM ## AIRSS Version 0.9.3 July 2022 commit v0.9.3-8-ga1e635fa32177e30cc
REM compiler GCC version 4.9.2
REM options -cpp -iprefix /scratch/UCL/applications/gcc/4.9.2/bin/../lib/gcc/x86_64-unknown-linux-gnu/4.9.2/ -mtune=corei7 -march=x86-64 -g -Og
REM COMMAND_LINE
REM seed -1574156002 1391291222 722646247 1922682586 2113950028 2093184564 -1663133724 -363319633 2021413438 -2089926179 -647295970 253232817
REM
REM N 2|1.4|13|15|17|20:21(qc=5)
REM Li 1|1.3|8|9|10|10U:20(qc=5)
REM 
CELL 1.54180    3.65543    3.65543    6.16203  107.25404  107.25404   90.00000
LATT -1
SFAC Li N  
Li     1  0.1635283664049  0.1635283664049  0.3270567328097 1.0
Li     1 -0.1635283664049 -0.1635283664049 -0.3270567328097 1.0
N      2  0.2416235701210  0.2416235701210 -0.2853432207491 1.0
N      2 -0.5269667908702 -0.5269667908702 -0.2853432207491 1.0
N      2 -0.2416235701210  0.5269667908702  0.2853432207491 1.0
N      2  0.5269667908702 -0.2416235701210  0.2853432207491 1.0
END
