TITL LiN2-230326-184924-8fbc03 -0.0167 62.684296 -1.47851724E+003 0 0  6 (R3) n - 1
REM
REM Run started: Sun, 26 Mar 2023 18:51:53 +0100 in /scratch/scratch/uccabz1/launch_tmp_michael/launcher_2023-03-26-17-49-24-821685
REM CASTEP 21.1 from code version cdfb9687+ bz-changes Mon Jan 4 11:18:28 2021 +0000
REM Functional Perdew Burke Ernzerhof Relativity Koelling-Harmon Dispersion off
REM Cut-off 340.0000 eV Grid scale 1.7500 Gmax 16.5316 1/A FBSC none
REM MP grid 5 5 5 Offset 0.000 0.000 0.000 No. kpts 23 Spacing 0.07
REM Total runtime: 161.4 s
REM Overall efficiency: 54.2857 %
REM
REM LiN2.cell (b953e92e767f3f2c67521e63ea917690)
REM ## AIRSS Version 0.9.3 July 2022 commit v0.9.3-8-ga1e635fa32177e30cc
REM compiler GCC version 4.9.2
REM options -cpp -iprefix /scratch/UCL/applications/gcc/4.9.2/bin/../lib/gcc/x86_64-unknown-linux-gnu/4.9.2/ -mtune=corei7 -march=x86-64 -g -Og
REM COMMAND_LINE
REM seed 568956001 -1797601335 -331482561 323866480 -1263975678 -523937624 -1841840951 1689906152 784603718 -1283573143 -1199325430 -1881891474
REM
REM N 2|1.4|13|15|17|20:21(qc=5)
REM Li 1|1.3|8|9|10|10U:20(qc=5)
REM 
CELL 1.54180    5.39744    5.39744    5.39744   41.61452   41.61452   41.61452
LATT -1
SFAC Li N  
Li     1  0.2692046216609  0.2692046216609  0.2692046216609 1.0
Li     1 -0.1857543628326 -0.1857543628326 -0.1857543628326 1.0
N      2  0.2149133756896  0.3608234463341 -0.3684771460164 1.0
N      2 -0.3684771460164  0.2149133756896  0.3608234463341 1.0
N      2  0.3608234463341 -0.3684771460164  0.2149133756896 1.0
N      2 -0.0510107348356 -0.0510107348356 -0.0510107348356 1.0
END
