TITL LiN2-230326-200715-c6969f -0.0028 111.516771 -2.22268462E+003 0 0  9 (R3) n - 1
REM
REM Run started: Sun, 26 Mar 2023 20:10:03 +0100 in /scratch/scratch/uccabz1/launch_tmp_michael/launcher_2023-03-26-19-07-15-707841
REM CASTEP 21.1 from code version cdfb9687+ bz-changes Mon Jan 4 11:18:28 2021 +0000
REM Functional Perdew Burke Ernzerhof Relativity Koelling-Harmon Dispersion off
REM Cut-off 340.0000 eV Grid scale 1.7500 Gmax 16.5316 1/A FBSC none
REM MP grid 3 3 3 Offset 0.000 0.000 0.000 No. kpts 6 Spacing 0.07
REM Total runtime: 184.91 s
REM Overall efficiency: 56.4286 %
REM
REM LiN2.cell (b953e92e767f3f2c67521e63ea917690)
REM ## AIRSS Version 0.9.3 July 2022 commit v0.9.3-8-ga1e635fa32177e30cc
REM compiler GCC version 4.9.2
REM options -cpp -iprefix /scratch/UCL/applications/gcc/4.9.2/bin/../lib/gcc/x86_64-unknown-linux-gnu/4.9.2/ -mtune=corei7 -march=x86-64 -g -Og
REM COMMAND_LINE
REM seed -643590974 1311145059 -1062196560 162531654 318360085 -1875912677 -603616685 -1400114770 -1411694736 1508093444 -1405918828 -843889731
REM
REM N 2|1.4|13|15|17|20:21(qc=5)
REM Li 1|1.3|8|9|10|10U:20(qc=5)
REM 
CELL 1.54180    4.83279    4.83279    4.83279   94.97892   94.97892   94.97892
LATT -1
SFAC Li N  
Li     1  0.0330147497234  0.3534034336294 -0.3076308086776 1.0
Li     1  0.3534034336294 -0.3076308086776  0.0330147497234 1.0
Li     1 -0.3076308086776  0.0330147497234  0.3534034336294 1.0
N      2 -0.1577429923043 -0.0189341866053 -0.2457965689552 1.0
N      2 -0.0189341866053 -0.2457965689552 -0.1577429923043 1.0
N      2 -0.2457965689552 -0.1577429923043 -0.0189341866053 1.0
N      2  0.2118940448692  0.2924874562887  0.0668912720316 1.0
N      2  0.2924874562887  0.0668912720316  0.2118940448692 1.0
N      2  0.0668912720316  0.2118940448692  0.2924874562887 1.0
END
