TITL LiN2-230326-192735-37578a 0.0049 99.180407 -2.22879697E+003 0 0  9 (Amm2) n - 1
REM
REM Run started: Sun, 26 Mar 2023 19:29:42 +0100 in /scratch/scratch/uccabz1/launch_tmp_michael/launcher_2023-03-26-18-27-35-433038
REM CASTEP 21.1 from code version cdfb9687+ bz-changes Mon Jan 4 11:18:28 2021 +0000
REM Functional Perdew Burke Ernzerhof Relativity Koelling-Harmon Dispersion off
REM Cut-off 340.0000 eV Grid scale 1.7500 Gmax 16.5316 1/A FBSC none
REM MP grid 4 4 4 Offset 0.000 0.000 0.000 No. kpts 12 Spacing 0.07
REM Total runtime: 139.83 s
REM Overall efficiency: 53.8571 %
REM
REM LiN2.cell (b953e92e767f3f2c67521e63ea917690)
REM ## AIRSS Version 0.9.3 July 2022 commit v0.9.3-8-ga1e635fa32177e30cc
REM compiler GCC version 4.9.2
REM options -cpp -iprefix /scratch/UCL/applications/gcc/4.9.2/bin/../lib/gcc/x86_64-unknown-linux-gnu/4.9.2/ -mtune=corei7 -march=x86-64 -g -Og
REM COMMAND_LINE
REM seed -1988510587 -302434429 -2004975277 1022046038 -1892259809 487280911 -1837168051 -1791463776 -1507796343 -1737374060 -1542105720 -970209442
REM
REM N 2|1.4|13|15|17|20:21(qc=5)
REM Li 1|1.3|8|9|10|10U:20(qc=5)
REM 
CELL 1.54180    4.12476    5.20359    5.20359  117.37480   90.00000   90.00000
LATT -1
SFAC Li N  
Li     1  0.5000000000000 -0.2048240533583  0.1285157224263 1.0
Li     1 -0.5000000000000  0.1285157224263 -0.2048240533583 1.0
Li     1 -0.5000000000000  0.4288426732092  0.4288426732092 1.0
N      2 -0.1434506585531 -0.3878071980590  0.2783012127967 1.0
N      2  0.1434506585531  0.2783012127967 -0.3878071980590 1.0
N      2 -0.1434506585531  0.2783012127967 -0.3878071980590 1.0
N      2  0.1434506585531 -0.3878071980590  0.2783012127967 1.0
N      2 -0.1435227809729 -0.0377910358764 -0.0377910358764 1.0
N      2  0.1435227809729 -0.0377910358764 -0.0377910358764 1.0
END
