TITL LiN2-230326-194158-d5b48b 0.0090 89.982151 -2.22889269E+003 0 0  9 (P-6m2) n - 1
REM
REM Run started: Sun, 26 Mar 2023 19:45:39 +0100 in /scratch/scratch/uccabz1/launch_tmp_michael/launcher_2023-03-26-18-41-58-185005
REM CASTEP 21.1 from code version cdfb9687+ bz-changes Mon Jan 4 11:18:28 2021 +0000
REM Functional Perdew Burke Ernzerhof Relativity Koelling-Harmon Dispersion off
REM Cut-off 340.0000 eV Grid scale 1.7500 Gmax 16.5316 1/A FBSC none
REM MP grid 4 4 4 Offset 0.000 0.000 0.000 No. kpts 20 Spacing 0.07
REM Total runtime: 226.99 s
REM Overall efficiency: 69.5 %
REM
REM LiN2.cell (b953e92e767f3f2c67521e63ea917690)
REM ## AIRSS Version 0.9.3 July 2022 commit v0.9.3-8-ga1e635fa32177e30cc
REM compiler GCC version 4.9.2
REM options -cpp -iprefix /scratch/UCL/applications/gcc/4.9.2/bin/../lib/gcc/x86_64-unknown-linux-gnu/4.9.2/ -mtune=corei7 -march=x86-64 -g -Og
REM COMMAND_LINE
REM seed 971751858 306260565 -942672468 512856209 -431297785 1547239132 975996349 278938343 -1701001045 -889119643 -1178696476 577157132
REM
REM N 2|1.4|13|15|17|20:21(qc=5)
REM Li 1|1.3|8|9|10|10U:20(qc=5)
REM 
CELL 1.54180    4.01761    5.08544    5.08544  120.00000   90.00000   90.00000
LATT -1
SFAC Li N  
Li     1  0.3289787358738 -0.3332618945883 -0.3332982544973 1.0
Li     1  0.3289787358738  0.3334071342242  0.0000362599090 1.0
Li     1  0.3289787358738  0.0000726198179  0.3333707743152 1.0
N      2 -0.0233256834765 -0.3333062896159  0.0000362599090 1.0
N      2 -0.0233256834765  0.0000726198179 -0.3333426495249 1.0
N      2 -0.0233256834765  0.3334515292518  0.3334151693429 1.0
N      2 -0.3180409523973  0.3334491206355 -0.6665872392734 1.0
N      2 -0.3180409523973  0.6666961190004  0.0000362599090 1.0
N      2 -0.3180409523973  0.0000726198179 -0.3333402409086 1.0
END
