TITL LiN2-230326-175527-156876 -0.0144 180.299973 -2.96585926E+003 0 0  12 (R3) n - 1
REM
REM Run started: Sun, 26 Mar 2023 18:05:35 +0100 in /scratch/scratch/uccabz1/launch_tmp_michael/launcher_2023-03-26-16-55-27-615645
REM CASTEP 21.1 from code version cdfb9687+ bz-changes Mon Jan 4 11:18:28 2021 +0000
REM Functional Perdew Burke Ernzerhof Relativity Koelling-Harmon Dispersion off
REM Cut-off 340.0000 eV Grid scale 1.7500 Gmax 16.5316 1/A FBSC none
REM MP grid 3 3 4 Offset 0.000 0.000 0.000 No. kpts 14 Spacing 0.07
REM Total runtime: 612.68 s
REM Overall efficiency: 88.125 %
REM
REM LiN2.cell (b953e92e767f3f2c67521e63ea917690)
REM ## AIRSS Version 0.9.3 July 2022 commit v0.9.3-8-ga1e635fa32177e30cc
REM compiler GCC version 4.9.2
REM options -cpp -iprefix /scratch/UCL/applications/gcc/4.9.2/bin/../lib/gcc/x86_64-unknown-linux-gnu/4.9.2/ -mtune=corei7 -march=x86-64 -g -Og
REM COMMAND_LINE
REM seed 312005715 -640033536 -231728810 -1346719802 1914922305 557887179 -1600966950 1161383178 -1558857484 1825888567 1690347533 -196901854
REM
REM N 2|1.4|13|15|17|20:21(qc=5)
REM Li 1|1.3|8|9|10|10U:20(qc=5)
REM 
CELL 1.54180    6.63929    6.63929    6.08281   56.92458   56.92458   60.00000
LATT -1
SFAC Li N  
Li     1 -0.4971534086808 -0.0194985315914  0.0705840069931 1.0
Li     1  0.4460680332790 -0.4971534086808  0.0705840069931 1.0
Li     1 -0.0194985315914  0.4460680332790  0.0705840069931 1.0
Li     1  0.4841222485586  0.4841222485586 -0.4523666456759 1.0
N      2 -0.1654167492809 -0.4708673971845  0.4868351104794 1.0
N      2  0.1494491359860 -0.1654167492809  0.4868351104794 1.0
N      2 -0.4708673971845  0.1494491359860  0.4868351104794 1.0
N      2  0.0511825420985  0.0425448793614  0.3891921536358 1.0
N      2  0.5170805249044  0.0511825420985  0.3891921536358 1.0
N      2  0.0425448793614  0.5170805249044  0.3891921536358 1.0
N      2  0.3476791442597  0.3476791442597 -0.0430373327792 1.0
N      2 -0.3749166550434 -0.3749166550434  0.1247500651301 1.0
END
