TITL LiN2-230326-200828-1d21a0 0.0068 159.093796 -2.96866898E+003 0 0  12 (Pm) n - 1
REM
REM Run started: Sun, 26 Mar 2023 20:15:33 +0100 in /scratch/scratch/uccabz1/launch_tmp_michael/launcher_2023-03-26-19-08-28-434325
REM CASTEP 21.1 from code version cdfb9687+ bz-changes Mon Jan 4 11:18:28 2021 +0000
REM Functional Perdew Burke Ernzerhof Relativity Koelling-Harmon Dispersion off
REM Cut-off 340.0000 eV Grid scale 1.7500 Gmax 16.5316 1/A FBSC none
REM MP grid 3 2 4 Offset 0.000 0.000 0.000 No. kpts 6 Spacing 0.07
REM Total runtime: 462.85 s
REM Overall efficiency: 61.9 %
REM
REM LiN2.cell (b953e92e767f3f2c67521e63ea917690)
REM ## AIRSS Version 0.9.3 July 2022 commit v0.9.3-8-ga1e635fa32177e30cc
REM compiler GCC version 4.9.2
REM options -cpp -iprefix /scratch/UCL/applications/gcc/4.9.2/bin/../lib/gcc/x86_64-unknown-linux-gnu/4.9.2/ -mtune=corei7 -march=x86-64 -g -Og
REM COMMAND_LINE
REM seed -697614641 1731925507 -496997032 1051448121 927234573 -831099208 1516407489 1606122043 -1861953131 -2064010589 -1469515745 459170207
REM
REM N 2|1.4|13|15|17|20:21(qc=5)
REM Li 1|1.3|8|9|10|10U:20(qc=5)
REM 
CELL 1.54180    5.76142    7.78966    3.54491   90.00000   90.04095   90.00000
LATT -1
SFAC Li N  
Li     1 -0.2988757090422 -0.2487219628976  0.5219243938645 1.0
Li     1 -0.2988757090422  0.2487219628976  0.5219243938645 1.0
Li     1  0.2246041976640 -0.2764622122903  0.0758947317711 1.0
Li     1  0.2246041976640  0.2764622122903  0.0758947317711 1.0
N      2 -0.4874756712702  0.4148450847780  0.0973872129694 1.0
N      2 -0.4874756712702 -0.4148450847780  0.0973872129694 1.0
N      2 -0.0668953433086  0.4155837000150  0.0804829449254 1.0
N      2 -0.0668953433086 -0.4155837000150  0.0804829449254 1.0
N      2 -0.2774131755995  0.3271222611599  0.0173724367960 1.0
N      2 -0.2774131755995 -0.3271222611599  0.0173724367960 1.0
N      2  0.2226515015566  0.0765024267562 -0.4186706203264 1.0
N      2  0.2226515015566 -0.0765024267562 -0.4186706203264 1.0
END
