TITL LiN2-230326-161348-12cc27 0.0095 70.868952 -1.48199718E+003 0 0  6 (R3m) n - 1
REM
REM Run started: Sun, 26 Mar 2023 16:15:29 +0100 in /scratch/scratch/uccabz1/launch_tmp_michael/launcher_2023-03-26-15-13-48-689773
REM CASTEP 21.1 from code version cdfb9687+ bz-changes Mon Jan 4 11:18:28 2021 +0000
REM Functional Perdew Burke Ernzerhof Relativity Koelling-Harmon Dispersion off
REM Cut-off 340.0000 eV Grid scale 1.7500 Gmax 16.5316 1/A FBSC none
REM MP grid 4 4 5 Offset 0.000 0.000 0.000 No. kpts 40 Spacing 0.07
REM Total runtime: 111.94 s
REM Overall efficiency: 76.2 %
REM
REM LiN2.cell (b953e92e767f3f2c67521e63ea917690)
REM ## AIRSS Version 0.9.3 July 2022 commit v0.9.3-8-ga1e635fa32177e30cc
REM compiler GCC version 4.9.2
REM options -cpp -iprefix /scratch/UCL/applications/gcc/4.9.2/bin/../lib/gcc/x86_64-unknown-linux-gnu/4.9.2/ -mtune=corei7 -march=x86-64 -g -Og
REM COMMAND_LINE
REM seed 1652313229 1658317612 -804082337 2147366611 -541740532 1617595811 1709961867 -1749290563 -607783619 628034639 -780895872 51126790
REM
REM N 2|1.4|13|15|17|20:21(qc=5)
REM Li 1|1.3|8|9|10|10U:20(qc=5)
REM 
CELL 1.54180    5.13382    5.13382    4.29250   53.27336   53.27336   60.00000
LATT -1
SFAC Li N  
Li     1 -0.3382180965266 -0.3382180965266  0.0146542895799 1.0
Li     1  0.3970611631083  0.3970611631083 -0.1911834893249 1.0
N      2  0.3225312692520 -0.1094548823120  0.4570156593849 1.0
N      2 -0.1094548823120 -0.6700920463248  0.4570156593849 1.0
N      2 -0.6700920463248  0.3225312692520  0.4570156593849 1.0
N      2  0.1760286594699  0.1760286594699  0.4719140215903 1.0
END
