TITL LiN2-230326-190139-803512 0.0647 139.714242 -2.97028178E+003 0 0  12 (I222) n - 1
REM
REM Run started: Sun, 26 Mar 2023 19:09:03 +0100 in /scratch/scratch/uccabz1/launch_tmp_michael/launcher_2023-03-26-18-01-39-796679
REM CASTEP 21.1 from code version cdfb9687+ bz-changes Mon Jan 4 11:18:28 2021 +0000
REM Functional Perdew Burke Ernzerhof Relativity Koelling-Harmon Dispersion off
REM Cut-off 340.0000 eV Grid scale 1.7500 Gmax 16.5316 1/A FBSC none
REM MP grid 4 3 3 Offset 0.000 0.000 0.000 No. kpts 12 Spacing 0.07
REM Total runtime: 442.47 s
REM Overall efficiency: 66.4444 %
REM
REM LiN2.cell (b953e92e767f3f2c67521e63ea917690)
REM ## AIRSS Version 0.9.3 July 2022 commit v0.9.3-8-ga1e635fa32177e30cc
REM compiler GCC version 4.9.2
REM options -cpp -iprefix /scratch/UCL/applications/gcc/4.9.2/bin/../lib/gcc/x86_64-unknown-linux-gnu/4.9.2/ -mtune=corei7 -march=x86-64 -g -Og
REM COMMAND_LINE
REM seed 1295978615 -2103254395 -1038098386 1743099957 445752381 1644099518 133208325 1815509251 1129602069 -1078640051 -1139711216 -1176654671
REM
REM N 2|1.4|13|15|17|20:21(qc=5)
REM Li 1|1.3|8|9|10|10U:20(qc=5)
REM 
CELL 1.54180    5.10658    6.12140    6.12140   55.92746   65.34785   65.34785
LATT -1
SFAC Li N  
Li     1  0.2717241264009  0.6167015523894  0.1330537640697 1.0
Li     1  0.0214794428600 -0.6167015523894 -0.1330537640697 1.0
Li     1 -0.0214794428600  0.1330537640697  0.6167015523894 1.0
Li     1 -0.2717241264009 -0.1330537640697 -0.6167015523894 1.0
N      2  0.1700437295413 -0.1722993598498  0.3393058442153 1.0
N      2  0.3370502139068  0.1722993598498 -0.3393058442153 1.0
N      2 -0.3370502139068  0.3393058442153 -0.1722993598498 1.0
N      2 -0.1700437295413 -0.3393058442153  0.1722993598498 1.0
N      2 -0.3994512752057  0.0997987162843 -0.4034695524966 1.0
N      2  0.2968778885820 -0.0997987162843  0.4034695524966 1.0
N      2 -0.2968778885820 -0.4034695524966  0.0997987162843 1.0
N      2  0.3994512752057  0.4034695524966 -0.0997987162843 1.0
END
