TITL LiN2-230326-152744-71f2fd -0.0418 124.767403 -2.96675113E+003 0 0  12 (C2/m) n - 1
REM
REM Run started: Sun, 26 Mar 2023 15:38:25 +0100 in /scratch/scratch/uccabz1/launch_tmp_michael/launcher_2023-03-26-14-27-44-145430
REM CASTEP 21.1 from code version cdfb9687+ bz-changes Mon Jan 4 11:18:28 2021 +0000
REM Functional Perdew Burke Ernzerhof Relativity Koelling-Harmon Dispersion off
REM Cut-off 340.0000 eV Grid scale 1.7500 Gmax 16.5316 1/A FBSC none
REM MP grid 4 4 5 Offset 0.000 0.000 0.000 No. kpts 40 Spacing 0.07
REM Total runtime: 798.78 s
REM Overall efficiency: 57.1429 %
REM
REM LiN2.cell (b953e92e767f3f2c67521e63ea917690)
REM ## AIRSS Version 0.9.3 July 2022 commit v0.9.3-8-ga1e635fa32177e30cc
REM compiler GCC version 4.9.2
REM options -cpp -iprefix /scratch/UCL/applications/gcc/4.9.2/bin/../lib/gcc/x86_64-unknown-linux-gnu/4.9.2/ -mtune=corei7 -march=x86-64 -g -Og
REM COMMAND_LINE
REM seed 1704439175 -1889838048 -1608761075 1118121827 1827338738 -2110841416 -738985999 81238199 393599113 215711294 883917686 13500872
REM
REM N 2|1.4|13|15|17|20:21(qc=5)
REM Li 1|1.3|8|9|10|10U:20(qc=5)
REM 
CELL 1.54180    6.54659    6.54659    4.81942  122.34933   97.02838  121.06504
LATT -1
SFAC Li N  
Li     1 -0.4221623536241  0.0527770304865  0.1964483017137 1.0
Li     1  0.1436713712272  0.6186107553378  0.1964483017137 1.0
Li     1 -0.2513317895537 -0.4457444467971 -0.1343811483882 1.0
Li     1  0.3113633984089  0.1169507411654 -0.1343811483882 1.0
N      2  0.1395251578120 -0.0138707341259  0.3462780485345 1.0
N      2  0.3601488826605  0.2067529907225  0.3462780485345 1.0
N      2 -0.5962496130951 -0.3345204204071 -0.3913743900163 1.0
N      2 -0.0568538696092  0.2048753230788 -0.3913743900163 1.0
N      2 -0.5119511006227 -0.4932377436535  0.4552828935139 1.0
N      2 -0.0514792628326 -0.0327659058634  0.4552828935139 1.0
N      2  0.5312978952279 -0.0347228393585 -0.2827308053577 1.0
N      2 -0.2480078659991  0.1859713994144 -0.2827308053577 1.0
END
