TITL LiN2-230326-162331-e1cf76 0.0222 208.368381 -2.97014032E+003 0 0  12 (Pc) n - 1
REM
REM Run started: Sun, 26 Mar 2023 16:40:01 +0100 in /scratch/scratch/uccabz1/launch_tmp_michael/launcher_2023-03-26-15-23-30-902211
REM CASTEP 21.1 from code version cdfb9687+ bz-changes Mon Jan 4 11:18:28 2021 +0000
REM Functional Perdew Burke Ernzerhof Relativity Koelling-Harmon Dispersion off
REM Cut-off 340.0000 eV Grid scale 1.7500 Gmax 16.5316 1/A FBSC none
REM MP grid 6 4 1 Offset 0.000 0.000 0.000 No. kpts 12 Spacing 0.07
REM Total runtime: 1128.33 s
REM Overall efficiency: 62.0833 %
REM
REM LiN2.cell (b953e92e767f3f2c67521e63ea917690)
REM ## AIRSS Version 0.9.3 July 2022 commit v0.9.3-8-ga1e635fa32177e30cc
REM compiler GCC version 4.9.2
REM options -cpp -iprefix /scratch/UCL/applications/gcc/4.9.2/bin/../lib/gcc/x86_64-unknown-linux-gnu/4.9.2/ -mtune=corei7 -march=x86-64 -g -Og
REM COMMAND_LINE
REM seed -1429563849 834518744 -852982342 2127397028 916180369 119597080 -770901394 -1712271015 766063381 1428769298 -789415930 -1828264558
REM
REM N 2|1.4|13|15|17|20:21(qc=5)
REM Li 1|1.3|8|9|10|10U:20(qc=5)
REM 
CELL 1.54180    2.86564    5.04463   17.49832   90.00000   90.00000  124.54003
LATT -1
SFAC Li N  
Li     1  0.5562506246705 -0.1945127826351 -0.3478385101823 1.0
Li     1  0.5562506246705  0.3054872173649  0.3478385101823 1.0
Li     1  0.0437756265868 -0.5000923843455  0.0666182111344 1.0
Li     1  0.0437756265868 -0.0000923843455 -0.0666182111344 1.0
N      2 -0.2532980180156 -0.6313725981055  0.2354113925168 1.0
N      2 -0.2532980180156 -0.1313725981055 -0.2354113925168 1.0
N      2 -0.1777149176973 -0.0754206655648 -0.1705101349857 1.0
N      2 -0.1777149176973 -0.5754206655648  0.1705101349857 1.0
N      2  0.4145533995785  0.1666140915282 -0.3754325836163 1.0
N      2  0.4145533995785  0.6666140915282  0.3754325836163 1.0
N      2 -0.3044167151229  0.4485783391227 -0.3735637025246 1.0
N      2 -0.3044167151229 -0.0514216608773  0.3735637025246 1.0
END
