TITL LiN2-230326-152425-630288 -0.0094 108.953813 -2.22748854E+003 0 0  9 (R3) n - 1
REM
REM Run started: Sun, 26 Mar 2023 15:28:40 +0100 in /scratch/scratch/uccabz1/launch_tmp_michael/launcher_2023-03-26-14-24-25-552313
REM CASTEP 21.1 from code version cdfb9687+ bz-changes Mon Jan 4 11:18:28 2021 +0000
REM Functional Perdew Burke Ernzerhof Relativity Koelling-Harmon Dispersion off
REM Cut-off 340.0000 eV Grid scale 1.7500 Gmax 16.5316 1/A FBSC none
REM MP grid 5 3 3 Offset 0.000 0.000 0.000 No. kpts 21 Spacing 0.07
REM Total runtime: 269.77 s
REM Overall efficiency: 71.7143 %
REM
REM LiN2.cell (b953e92e767f3f2c67521e63ea917690)
REM ## AIRSS Version 0.9.3 July 2022 commit v0.9.3-8-ga1e635fa32177e30cc
REM compiler GCC version 4.9.2
REM options -cpp -iprefix /scratch/UCL/applications/gcc/4.9.2/bin/../lib/gcc/x86_64-unknown-linux-gnu/4.9.2/ -mtune=corei7 -march=x86-64 -g -Og
REM COMMAND_LINE
REM seed 84780220 -1730677683 1012858006 673972542 -1933658965 1307037307 1865631155 206010268 2115642855 -70125781 -279625457 2021714116
REM
REM N 2|1.4|13|15|17|20:21(qc=5)
REM Li 1|1.3|8|9|10|10U:20(qc=5)
REM 
CELL 1.54180    3.40393    6.18445    6.18445  116.71223  100.57178  100.57178
LATT -1
SFAC Li N  
Li     1  0.4888759381179  0.0813064470186 -0.2635247172293 1.0
Li     1  0.4075694910993 -0.3448311642479 -0.0813064470186 1.0
Li     1 -0.2475993446528  0.2635247172293  0.3448311642479 1.0
N      2  0.2201337843321  0.0413530868126  0.3702420375028 1.0
N      2  0.1787806975194  0.3288889506902 -0.0413530868126 1.0
N      2 -0.1501082531708 -0.3702420375028 -0.3288889506902 1.0
N      2 -0.3136530675252 -0.2091101528657 -0.3064516364647 1.0
N      2 -0.1045429146595 -0.0973414835990  0.2091101528657 1.0
N      2 -0.0072014310605  0.3064516364647  0.0973414835990 1.0
END
