TITL LiN2-230326-170322-89d297 0.0429 146.991536 -2.96408986E+003 0 0  12 (I41) n - 1
REM
REM Run started: Sun, 26 Mar 2023 17:17:40 +0100 in /scratch/scratch/uccabz1/launch_tmp_michael/launcher_2023-03-26-16-03-22-489258
REM CASTEP 21.1 from code version cdfb9687+ bz-changes Mon Jan 4 11:18:28 2021 +0000
REM Functional Perdew Burke Ernzerhof Relativity Koelling-Harmon Dispersion off
REM Cut-off 340.0000 eV Grid scale 1.7500 Gmax 16.5316 1/A FBSC none
REM MP grid 5 3 3 Offset 0.000 0.000 0.000 No. kpts 21 Spacing 0.07
REM Total runtime: 933.41 s
REM Overall efficiency: 72.1 %
REM
REM LiN2.cell (b953e92e767f3f2c67521e63ea917690)
REM ## AIRSS Version 0.9.3 July 2022 commit v0.9.3-8-ga1e635fa32177e30cc
REM compiler GCC version 4.9.2
REM options -cpp -iprefix /scratch/UCL/applications/gcc/4.9.2/bin/../lib/gcc/x86_64-unknown-linux-gnu/4.9.2/ -mtune=corei7 -march=x86-64 -g -Og
REM COMMAND_LINE
REM seed 2020305517 -833148149 -1160176156 -694713453 -1922753547 -970977105 -1779742224 1882002354 287224442 1076013333 1250932663 -960794693
REM
REM N 2|1.4|13|15|17|20:21(qc=5)
REM Li 1|1.3|8|9|10|10U:20(qc=5)
REM 
CELL 1.54180    3.42701    6.76965    6.76965   86.32669   75.33807   75.33807
LATT -1
SFAC Li N  
Li     1 -0.1923520929352  0.1727048492823  0.2534539358634 1.0
Li     1  0.2338066922104 -0.1727048492823 -0.2534539358634 1.0
Li     1  0.2303527563470 -0.2465460641366  0.3272951507177 1.0
Li     1  0.3111018429281  0.2465460641366 -0.3272951507177 1.0
N      2 -0.2634326329224  0.4065095373007  0.0711483465062 1.0
N      2  0.2142252508846 -0.4065095373007 -0.0711483465062 1.0
N      2  0.3930769043784  0.5711483465062  0.0934904626993 1.0
N      2  0.0577157135838 -0.5711483465062 -0.0934904626993 1.0
N      2 -0.2634290492331 -0.0368855699496 -0.3791840988214 1.0
N      2  0.3205012819958  0.0368855699496  0.3791840988214 1.0
N      2 -0.0503146191828  0.1208159011786 -0.4631144300504 1.0
N      2 -0.3926131480546 -0.1208159011786  0.4631144300504 1.0
END
