TITL LiN2-230326-164044-cb3218 -0.0291 111.778918 -2.22680231E+003 0 0  9 (P2) n - 1
REM
REM Run started: Sun, 26 Mar 2023 16:44:24 +0100 in /scratch/scratch/uccabz1/launch_tmp_michael/launcher_2023-03-26-15-40-44-016305
REM CASTEP 21.1 from code version cdfb9687+ bz-changes Mon Jan 4 11:18:28 2021 +0000
REM Functional Perdew Burke Ernzerhof Relativity Koelling-Harmon Dispersion off
REM Cut-off 340.0000 eV Grid scale 1.7500 Gmax 16.5316 1/A FBSC none
REM MP grid 5 3 3 Offset 0.000 0.000 0.000 No. kpts 16 Spacing 0.07
REM Total runtime: 235.3 s
REM Overall efficiency: 76.5714 %
REM
REM LiN2.cell (b953e92e767f3f2c67521e63ea917690)
REM ## AIRSS Version 0.9.3 July 2022 commit v0.9.3-8-ga1e635fa32177e30cc
REM compiler GCC version 4.9.2
REM options -cpp -iprefix /scratch/UCL/applications/gcc/4.9.2/bin/../lib/gcc/x86_64-unknown-linux-gnu/4.9.2/ -mtune=corei7 -march=x86-64 -g -Og
REM COMMAND_LINE
REM seed 150509777 -1151591357 1280227221 -313809495 -225681126 282315614 -22184517 1450045081 156416641 -104793835 809212239 -267090893
REM
REM N 2|1.4|13|15|17|20:21(qc=5)
REM Li 1|1.3|8|9|10|10U:20(qc=5)
REM 
CELL 1.54180    3.14987    6.73022    5.27877   90.00000   90.00000   92.73609
LATT -1
SFAC Li N  
Li     1 -0.3029310287382  0.2372516228171 -0.0810675591067 1.0
Li     1  0.3029310287382 -0.2372516228171 -0.0810675591067 1.0
Li     1  0.5000000000000  0.5000000000000  0.4530324757879 1.0
N      2  0.0564113990711  0.2647435257112 -0.3873858279323 1.0
N      2 -0.0564113990711 -0.2647435257112 -0.3873858279323 1.0
N      2 -0.2267990633990 -0.2397530633966  0.1730356671554 1.0
N      2  0.2267990633990  0.2397530633966  0.1730356671554 1.0
N      2 -0.1310020257636 -0.2130113467445  0.3949761319897 1.0
N      2  0.1310020257636  0.2130113467445  0.3949761319897 1.0
END
