TITL LiN2-230326-202045-b45067 0.0045 72.468143 -1.48549727E+003 0 0  6 (Ama2) n - 1
REM
REM Run started: Sun, 26 Mar 2023 20:22:54 +0100 in /scratch/scratch/uccabz1/launch_tmp_michael/launcher_2023-03-26-19-20-45-615127
REM CASTEP 21.1 from code version cdfb9687+ bz-changes Mon Jan 4 11:18:28 2021 +0000
REM Functional Perdew Burke Ernzerhof Relativity Koelling-Harmon Dispersion off
REM Cut-off 340.0000 eV Grid scale 1.7500 Gmax 16.5316 1/A FBSC none
REM MP grid 5 4 3 Offset 0.000 0.000 0.000 No. kpts 28 Spacing 0.07
REM Total runtime: 155.79 s
REM Overall efficiency: 74.5 %
REM
REM LiN2.cell (b953e92e767f3f2c67521e63ea917690)
REM ## AIRSS Version 0.9.3 July 2022 commit v0.9.3-8-ga1e635fa32177e30cc
REM compiler GCC version 4.9.2
REM options -cpp -iprefix /scratch/UCL/applications/gcc/4.9.2/bin/../lib/gcc/x86_64-unknown-linux-gnu/4.9.2/ -mtune=corei7 -march=x86-64 -g -Og
REM COMMAND_LINE
REM seed 414828086 -1784713921 1947573313 1503561263 1443524697 1100812401 -699105560 351583479 -27695769 587911267 -182260441 685924447
REM
REM N 2|1.4|13|15|17|20:21(qc=5)
REM Li 1|1.3|8|9|10|10U:20(qc=5)
REM 
CELL 1.54180    3.01984    4.64020    5.46936   89.89608   89.68064   71.01019
LATT -1
SFAC Li N  
Li     1  0.5631650666562  0.3566036865061 -0.2499998999679 1.0
Li     1  0.0802312468377  0.3566036865061  0.2499998999679 1.0
N      2 -0.5732249849386 -0.3376037495163  0.2499426966578 1.0
N      2 -0.0891712655450 -0.3376037495163 -0.2499426966578 1.0
N      2  0.2933579719406 -0.0688162369897  0.2499870824652 1.0
N      2 -0.2245417349509 -0.0688162369897 -0.2499870824652 1.0
END
