TITL LiN2-230326-171510-5f7a39 0.0674 84.395764 -2.22470010E+003 0 0  9 (C2) n - 1
REM
REM Run started: Sun, 26 Mar 2023 17:22:04 +0100 in /scratch/scratch/uccabz1/launch_tmp_michael/launcher_2023-03-26-16-15-09-986353
REM CASTEP 21.1 from code version cdfb9687+ bz-changes Mon Jan 4 11:18:28 2021 +0000
REM Functional Perdew Burke Ernzerhof Relativity Koelling-Harmon Dispersion off
REM Cut-off 340.0000 eV Grid scale 1.7500 Gmax 16.5316 1/A FBSC none
REM MP grid 5 4 3 Offset 0.000 0.000 0.000 No. kpts 30 Spacing 0.07
REM Total runtime: 475.55 s
REM Overall efficiency: 86 %
REM
REM LiN2.cell (b953e92e767f3f2c67521e63ea917690)
REM ## AIRSS Version 0.9.3 July 2022 commit v0.9.3-8-ga1e635fa32177e30cc
REM compiler GCC version 4.9.2
REM options -cpp -iprefix /scratch/UCL/applications/gcc/4.9.2/bin/../lib/gcc/x86_64-unknown-linux-gnu/4.9.2/ -mtune=corei7 -march=x86-64 -g -Og
REM COMMAND_LINE
REM seed -538735229 835454798 -1171308327 -921429109 372545644 745932607 1000416593 621992111 -1512591216 -632264085 1705700529 508219321
REM
REM N 2|1.4|13|15|17|20:21(qc=5)
REM Li 1|1.3|8|9|10|10U:20(qc=5)
REM 
CELL 1.54180    3.39897    3.69386    7.62879  104.01052  113.96710   90.00000
LATT -1
SFAC Li N  
Li     1 -0.1191180667013 -0.2377425878083 -0.4017197852160 1.0
Li     1  0.1191180667013  0.1639771974077  0.4017197852160 1.0
Li     1 -0.0000000000000 -0.0292961707766  0.0000000000000 1.0
N      2  0.2539612860555  0.3578243735024 -0.3047635995315 1.0
N      2 -0.2539612860555 -0.3374120269661  0.3047635995315 1.0
N      2 -0.0494774184929 -0.5379792546993  0.1881816701356 1.0
N      2  0.0494774184929  0.2738390751651 -0.1881816701356 1.0
N      2  0.3259650072365 -0.2798664117049  0.2619847824153 1.0
N      2 -0.3259650072365 -0.5418511941203 -0.2619847824153 1.0
END
