TITL LiN2-230326-150941-9bc16f 0.0117 193.412340 -2.97042404E+003 0 0  12 (P2) n - 1
REM
REM Run started: Sun, 26 Mar 2023 15:22:43 +0100 in /scratch/scratch/uccabz1/launch_tmp_michael/launcher_2023-03-26-14-09-41-069228
REM CASTEP 21.1 from code version cdfb9687+ bz-changes Mon Jan 4 11:18:28 2021 +0000
REM Functional Perdew Burke Ernzerhof Relativity Koelling-Harmon Dispersion off
REM Cut-off 340.0000 eV Grid scale 1.7500 Gmax 16.5316 1/A FBSC none
REM MP grid 3 3 4 Offset 0.000 0.000 0.000 No. kpts 12 Spacing 0.07
REM Total runtime: 867.59 s
REM Overall efficiency: 65.3846 %
REM
REM LiN2.cell (b953e92e767f3f2c67521e63ea917690)
REM ## AIRSS Version 0.9.3 July 2022 commit v0.9.3-8-ga1e635fa32177e30cc
REM compiler GCC version 4.9.2
REM options -cpp -iprefix /scratch/UCL/applications/gcc/4.9.2/bin/../lib/gcc/x86_64-unknown-linux-gnu/4.9.2/ -mtune=corei7 -march=x86-64 -g -Og
REM COMMAND_LINE
REM seed 992575446 -1497135745 -1844878071 433348596 -764987844 1432588021 1238086025 1221001660 -345108630 1265894940 1089234546 354814228
REM
REM N 2|1.4|13|15|17|20:21(qc=5)
REM Li 1|1.3|8|9|10|10U:20(qc=5)
REM 
CELL 1.54180    4.75627    8.89698    6.83727  138.04961   90.00000   90.00000
LATT -1
SFAC Li N  
Li     1  0.5045205282859  0.2576512703082  0.0855985552831 1.0
Li     1  0.5045205282859 -0.2576512703082 -0.0855985552831 1.0
Li     1  0.0285183151566  0.0841074896423  0.2833191111222 1.0
Li     1  0.0285183151566 -0.0841074896423 -0.2833191111222 1.0
N      2  0.2141546909537 -0.2264426849955  0.3507491768143 1.0
N      2  0.2141546909537  0.2264426849955 -0.3507491768143 1.0
N      2  0.3589544689118 -0.2589486539778  0.1859586656656 1.0
N      2  0.3589544689118  0.2589486539778 -0.1859586656656 1.0
N      2  0.1340074602407  0.2226179143386  0.1435361199845 1.0
N      2  0.1340074602407 -0.2226179143386 -0.1435361199845 1.0
N      2 -0.1216979635487 -0.2140647143974 -0.1338748541172 1.0
N      2 -0.1216979635487  0.2140647143974  0.1338748541172 1.0
END
