TITL LiN2-230326-175412-f63f71 -0.0227 210.821768 -4.45622025E+003 0 0  18 (P31) n - 1
REM
REM Run started: Sun, 26 Mar 2023 18:30:02 +0100 in /scratch/scratch/uccabz1/launch_tmp_michael/launcher_2023-03-26-16-54-12-434300
REM CASTEP 21.1 from code version cdfb9687+ bz-changes Mon Jan 4 11:18:28 2021 +0000
REM Functional Perdew Burke Ernzerhof Relativity Koelling-Harmon Dispersion off
REM Cut-off 340.0000 eV Grid scale 1.7500 Gmax 16.5316 1/A FBSC none
REM MP grid 4 4 2 Offset 0.000 0.000 0.000 No. kpts 16 Spacing 0.07
REM Total runtime: 2284.01 s
REM Overall efficiency: 91.3077 %
REM
REM LiN2.cell (b953e92e767f3f2c67521e63ea917690)
REM ## AIRSS Version 0.9.3 July 2022 commit v0.9.3-8-ga1e635fa32177e30cc
REM compiler GCC version 4.9.2
REM options -cpp -iprefix /scratch/UCL/applications/gcc/4.9.2/bin/../lib/gcc/x86_64-unknown-linux-gnu/4.9.2/ -mtune=corei7 -march=x86-64 -g -Og
REM COMMAND_LINE
REM seed 984993850 -1082466506 -979475933 -935434301 81604129 1846835666 68964475 1707722863 1526377767 -2105310260 243649190 1651208915
REM
REM N 2|1.4|13|15|17|20:21(qc=5)
REM Li 1|1.3|8|9|10|10U:20(qc=5)
REM 
CELL 1.54180    5.04020    5.04020    9.58273   90.00000   90.00000  120.00000
LATT -1
SFAC Li N  
Li     1  0.1469792991506  0.8199901813917 -0.2355896636469 1.0
Li     1  0.6730107822411 -0.1469792991506 -0.5689229969802 1.0
Li     1 -0.8199901813917 -0.6730107822411  0.0977436696864 1.0
Li     1 -0.3273133137503 -0.1826393475409 -0.0078462591630 1.0
Li     1  0.1446738662094  0.3273133137503 -0.3411795924963 1.0
Li     1  0.1826393475409 -0.1446738662094  0.3254870741703 1.0
N      2 -0.2590246922590  0.2461362611064  0.0648664255825 1.0
N      2 -0.4948391466345  0.2590246922590 -0.2684669077508 1.0
N      2 -0.2461362611064  0.4948391466345  0.3981997589159 1.0
N      2 -0.7542799986620 -0.2485516182492 -0.0136392422783 1.0
N      2  0.5057282804128  0.7542799986620 -0.3469725756117 1.0
N      2  0.2485516182492 -0.5057282804128  0.3196940910550 1.0
N      2 -0.2255231854787  0.3942220220446 -0.2647323214278 1.0
N      2 -0.3802548924767  0.2255231854787  0.4019343452389 1.0
N      2 -0.3942220220446  0.3802548924767  0.0686010119055 1.0
N      2 -0.2188334457702 -0.0992637668674 -0.3439808723998 1.0
N      2  0.1195695789029  0.2188334457702  0.3226857942668 1.0
N      2  0.0992637668674 -0.1195695789029 -0.0106475390665 1.0
END
