TITL LiN2-230326-180842-707301 0.0727 186.656965 -4.45238595E+003 0 0  18 (I41) n - 1
REM
REM Run started: Sun, 26 Mar 2023 18:20:54 +0100 in /scratch/scratch/uccabz1/launch_tmp_michael/launcher_2023-03-26-17-08-41-952687
REM CASTEP 21.1 from code version cdfb9687+ bz-changes Mon Jan 4 11:18:28 2021 +0000
REM Functional Perdew Burke Ernzerhof Relativity Koelling-Harmon Dispersion off
REM Cut-off 340.0000 eV Grid scale 1.7500 Gmax 16.5316 1/A FBSC none
REM MP grid 5 2 2 Offset 0.000 0.000 0.000 No. kpts 9 Spacing 0.07
REM Total runtime: 790.5 s
REM Overall efficiency: 84.875 %
REM
REM LiN2.cell (b953e92e767f3f2c67521e63ea917690)
REM ## AIRSS Version 0.9.3 July 2022 commit v0.9.3-8-ga1e635fa32177e30cc
REM compiler GCC version 4.9.2
REM options -cpp -iprefix /scratch/UCL/applications/gcc/4.9.2/bin/../lib/gcc/x86_64-unknown-linux-gnu/4.9.2/ -mtune=corei7 -march=x86-64 -g -Og
REM COMMAND_LINE
REM seed 2093963131 240184644 -1279444794 1125443080 -1425128402 2128590625 -1919708149 1349549741 2123320702 -576844633 -921942706 -2055126525
REM
REM N 2|1.4|13|15|17|20:21(qc=5)
REM Li 1|1.3|8|9|10|10U:20(qc=5)
REM 
CELL 1.54180    3.36263    7.63781    7.63781   87.22252   77.28331   77.28331
LATT -1
SFAC Li N  
Li     1  0.4984232154854 -0.3151792246602  0.2102001831891 1.0
Li     1  0.3934441740143  0.3151792246602 -0.2102001831891 1.0
Li     1 -0.0667560091748 -0.2897998168109 -0.1848207753398 1.0
Li     1  0.4586233986745  0.2897998168109  0.1848207753398 1.0
Li     1  0.2564711568565  0.0000000000000 -0.0000000000000 1.0
Li     1  0.0064711568565 -0.5000000000000  0.5000000000000 1.0
N      2 -0.2644211092064 -0.5252501675832 -0.1109384012243 1.0
N      2  0.0993903219862  0.5252501675832  0.1109384012243 1.0
N      2 -0.0396712767896  0.3890615987757  0.0252501675832 1.0
N      2 -0.6253595104306 -0.3890615987757 -0.0252501675832 1.0
N      2 -0.2001563276917  0.0319298151691 -0.1785022004952 1.0
N      2 -0.3467287130178 -0.0319298151691  0.1785022004952 1.0
N      2 -0.4182265125226  0.3214977995048  0.4680701848309 1.0
N      2  0.3713414718131 -0.3214977995048 -0.4680701848309 1.0
N      2  0.0287616188133  0.1274011290750 -0.2423940851282 1.0
N      2 -0.0862313372399 -0.1274011290750  0.2423940851282 1.0
N      2 -0.0938372521117  0.2576059148718  0.3725988709250 1.0
N      2  0.5363675336851 -0.2576059148718 -0.3725988709250 1.0
END
