TITL LiN2-230326-185714-b67b36 0.0030 117.518053 -2.96565340E+003 0 0  12 (I212121) n - 1
REM
REM Run started: Sun, 26 Mar 2023 19:04:06 +0100 in /scratch/scratch/uccabz1/launch_tmp_michael/launcher_2023-03-26-17-57-13-853922
REM CASTEP 21.1 from code version cdfb9687+ bz-changes Mon Jan 4 11:18:28 2021 +0000
REM Functional Perdew Burke Ernzerhof Relativity Koelling-Harmon Dispersion off
REM Cut-off 340.0000 eV Grid scale 1.7500 Gmax 16.5316 1/A FBSC none
REM MP grid 4 3 4 Offset 0.000 0.000 0.000 No. kpts 24 Spacing 0.07
REM Total runtime: 415.34 s
REM Overall efficiency: 62.875 %
REM
REM LiN2.cell (b953e92e767f3f2c67521e63ea917690)
REM ## AIRSS Version 0.9.3 July 2022 commit v0.9.3-8-ga1e635fa32177e30cc
REM compiler GCC version 4.9.2
REM options -cpp -iprefix /scratch/UCL/applications/gcc/4.9.2/bin/../lib/gcc/x86_64-unknown-linux-gnu/4.9.2/ -mtune=corei7 -march=x86-64 -g -Og
REM COMMAND_LINE
REM seed 1362050928 -1569266267 -1755255660 -1249458880 1225017789 789002836 -786323606 -1863173503 324769080 1759820910 -234085387 -1157525739
REM
REM N 2|1.4|13|15|17|20:21(qc=5)
REM Li 1|1.3|8|9|10|10U:20(qc=5)
REM 
CELL 1.54180    4.81155    6.08871    5.58095  123.05816  115.53538   90.00000
LATT -1
SFAC Li N  
Li     1  0.4534687383462  0.4964173323827 -0.1835036064451 1.0
Li     1  0.0465311616538  0.1799209388278  0.1835036064451 1.0
Li     1 -0.1369724447913  0.3200790611722 -0.1835036064451 1.0
Li     1 -0.3630276552087  0.0035826676173  0.1835036064451 1.0
N      2 -0.1447960948132 -0.2433929335342  0.2967445762060 1.0
N      2 -0.3552040051868 -0.0401375097403 -0.2967445762060 1.0
N      2 -0.0584594289807 -0.4598624902597  0.2967445762060 1.0
N      2  0.5584593289807 -0.2566070664658 -0.2967445762060 1.0
N      2 -0.1779672860628  0.4331163324297  0.4064523210498 1.0
N      2 -0.3220328139372 -0.4733359886201 -0.4064523210498 1.0
N      2  0.0844195071126 -0.0266640113799  0.4064523210498 1.0
N      2  0.4155803928874  0.0668836675703 -0.4064523210498 1.0
END
