TITL LiN2-230326-171904-18c59f -0.0040 232.091270 -4.45120265E+003 0 0  18 (Cm) n - 1
REM
REM Run started: Sun, 26 Mar 2023 17:43:03 +0100 in /scratch/scratch/uccabz1/launch_tmp_michael/launcher_2023-03-26-16-19-04-361947
REM CASTEP 21.1 from code version cdfb9687+ bz-changes Mon Jan 4 11:18:28 2021 +0000
REM Functional Perdew Burke Ernzerhof Relativity Koelling-Harmon Dispersion off
REM Cut-off 340.0000 eV Grid scale 1.7500 Gmax 16.5316 1/A FBSC none
REM MP grid 4 4 2 Offset 0.000 0.000 0.000 No. kpts 10 Spacing 0.07
REM Total runtime: 1544.94 s
REM Overall efficiency: 71.3077 %
REM
REM LiN2.cell (b953e92e767f3f2c67521e63ea917690)
REM ## AIRSS Version 0.9.3 July 2022 commit v0.9.3-8-ga1e635fa32177e30cc
REM compiler GCC version 4.9.2
REM options -cpp -iprefix /scratch/UCL/applications/gcc/4.9.2/bin/../lib/gcc/x86_64-unknown-linux-gnu/4.9.2/ -mtune=corei7 -march=x86-64 -g -Og
REM COMMAND_LINE
REM seed -1031873138 40992253 1256744357 802820623 -876955384 1250572132 1226909889 1771544974 -1113492938 2092473548 -1376836988 1272065142
REM
REM N 2|1.4|13|15|17|20:21(qc=5)
REM Li 1|1.3|8|9|10|10U:20(qc=5)
REM 
CELL 1.54180    5.21452    5.21452   11.45810  114.31077  114.31077  101.40266
LATT -1
SFAC Li N  
Li     1 -0.2422553928900  0.3374594587240  0.0142218399193 1.0
Li     1  0.3374594587240 -0.2422553928900  0.0142218399193 1.0
Li     1 -0.1564032106073  0.5337968571480  0.4221174332495 1.0
Li     1  0.5337968571480 -0.1564032106073  0.4221174332495 1.0
Li     1 -0.4648076629870  0.0067730380339 -0.2763924663692 1.0
Li     1  0.0067730380339 -0.4648076629870 -0.2763924663692 1.0
N      2 -0.3692334865396 -0.5398831917037 -0.1491637066256 1.0
N      2 -0.5398831917037 -0.3692334865396 -0.1491637066256 1.0
N      2 -0.0092456966595 -0.1652306930329  0.6392573627068 1.0
N      2 -0.1652306930329 -0.0092456966595  0.6392573627068 1.0
N      2  0.1115656993180  0.5372440324507  0.2579007402313 1.0
N      2  0.5372440324507  0.1115656993180  0.2579007402313 1.0
N      2 -0.1354272562315 -0.3068536237269 -0.1260619618727 1.0
N      2 -0.3068536237269 -0.1354272562315 -0.1260619618727 1.0
N      2  0.4279640424722 -0.1835295504600  0.2289093332104 1.0
N      2 -0.1835295504600  0.4279640424722  0.2289093332104 1.0
N      2 -0.2708416928675  0.1388319295591  0.2096561255503 1.0
N      2  0.1388319295591 -0.2708416928675  0.2096561255503 1.0
END
