TITL LiN2-230326-154815-4a57df -0.0161 149.787635 -4.45184692E+003 0 0  18 (Pba2) n - 1
REM
REM Run started: Sun, 26 Mar 2023 15:54:57 +0100 in /scratch/scratch/uccabz1/launch_tmp_michael/launcher_2023-03-26-14-48-15-368470
REM CASTEP 21.1 from code version cdfb9687+ bz-changes Mon Jan 4 11:18:28 2021 +0000
REM Functional Perdew Burke Ernzerhof Relativity Koelling-Harmon Dispersion off
REM Cut-off 340.0000 eV Grid scale 1.7500 Gmax 16.5316 1/A FBSC none
REM MP grid 3 5 2 Offset 0.000 0.000 0.000 No. kpts 6 Spacing 0.07
REM Total runtime: 435.78 s
REM Overall efficiency: 65.5556 %
REM
REM LiN2.cell (b953e92e767f3f2c67521e63ea917690)
REM ## AIRSS Version 0.9.3 July 2022 commit v0.9.3-8-ga1e635fa32177e30cc
REM compiler GCC version 4.9.2
REM options -cpp -iprefix /scratch/UCL/applications/gcc/4.9.2/bin/../lib/gcc/x86_64-unknown-linux-gnu/4.9.2/ -mtune=corei7 -march=x86-64 -g -Og
REM COMMAND_LINE
REM seed -1335347105 -102348418 314514775 44510248 1535323574 -652831943 -2032113794 1515180756 919620752 1517042249 2068104808 -1658645030
REM
REM N 2|1.4|13|15|17|20:21(qc=5)
REM Li 1|1.3|8|9|10|10U:20(qc=5)
REM 
CELL 1.54180    6.73199    2.94743    7.54900   90.00000   90.00000   90.00000
LATT -1
SFAC Li N  
Li     1 -0.3324270981411  0.4052289004455 -0.0019488641659 1.0
Li     1  0.3324270981411  0.4052289004455  0.0019488641659 1.0
Li     1  0.1675729018589  0.4052289004455  0.5019488641659 1.0
Li     1 -0.1675729018589  0.4052289004455 -0.5019488641659 1.0
Li     1  0.0000000000000  0.2159120558459  0.0000000000000 1.0
Li     1 -0.5000000000000  0.2159120558459  0.5000000000000 1.0
N      2 -0.2223271675073 -0.1819589579752 -0.1969801629193 1.0
N      2  0.2223271675073 -0.1819589579752  0.1969801629193 1.0
N      2  0.2776728324927 -0.1819589579752 -0.3030198370807 1.0
N      2 -0.2776728324927 -0.1819589579752  0.3030198370807 1.0
N      2  0.4442323212457 -0.1905875172851 -0.1967398229177 1.0
N      2 -0.4442323212457 -0.1905875172851  0.1967398229177 1.0
N      2 -0.0557676787543 -0.1905875172851 -0.3032601770823 1.0
N      2  0.0557676787543 -0.1905875172851  0.3032601770823 1.0
N      2 -0.1107436505579 -0.1879350531083  0.1970386669035 1.0
N      2  0.1107436505579 -0.1879350531083 -0.1970386669035 1.0
N      2 -0.6107436505579 -0.1879350531083  0.3029613330965 1.0
N      2  0.6107436505579 -0.1879350531083 -0.3029613330965 1.0
END
