TITL LiN2-230326-174621-3a4aba 0.0184 113.648699 -2.22414011E+003 0 0  9 (P2/m) n - 1
REM
REM Run started: Sun, 26 Mar 2023 17:48:12 +0100 in /scratch/scratch/uccabz1/launch_tmp_michael/launcher_2023-03-26-16-46-21-341303
REM CASTEP 21.1 from code version cdfb9687+ bz-changes Mon Jan 4 11:18:28 2021 +0000
REM Functional Perdew Burke Ernzerhof Relativity Koelling-Harmon Dispersion off
REM Cut-off 340.0000 eV Grid scale 1.7500 Gmax 16.5316 1/A FBSC none
REM MP grid 4 5 2 Offset 0.000 0.000 0.000 No. kpts 12 Spacing 0.07
REM Total runtime: 129.73 s
REM Overall efficiency: 60.5 %
REM
REM LiN2.cell (b953e92e767f3f2c67521e63ea917690)
REM ## AIRSS Version 0.9.3 July 2022 commit v0.9.3-8-ga1e635fa32177e30cc
REM compiler GCC version 4.9.2
REM options -cpp -iprefix /scratch/UCL/applications/gcc/4.9.2/bin/../lib/gcc/x86_64-unknown-linux-gnu/4.9.2/ -mtune=corei7 -march=x86-64 -g -Og
REM COMMAND_LINE
REM seed 167145892 615561000 -929685224 -1769412197 1878910542 797311353 905792720 -944721521 -398711821 1497591894 -616103462 -97280559
REM
REM N 2|1.4|13|15|17|20:21(qc=5)
REM Li 1|1.3|8|9|10|10U:20(qc=5)
REM 
CELL 1.54180    3.92705    3.37396    8.69035   90.00000   80.75403   90.00000
LATT -1
SFAC Li N  
Li     1  0.5942352552750  0.0000000000000  0.1982804441988 1.0
Li     1 -0.5942352552750  0.0000000000000 -0.1982804441988 1.0
Li     1  0.5000000000000  0.0000000000000  0.5000000000000 1.0
N      2  0.2164337929588  0.3076029312282  0.3386165632427 1.0
N      2 -0.2164337929588  0.3076029312282 -0.3386165632427 1.0
N      2 -0.2164337929588 -0.3076029312282 -0.3386165632427 1.0
N      2  0.2164337929588 -0.3076029312282  0.3386165632427 1.0
N      2 -0.0153257510276  0.0000000000000  0.3149653150557 1.0
N      2  0.0153257510276  0.0000000000000 -0.3149653150557 1.0
END
