TITL LiN2-230326-163820-99ed40 0.0247 361.364755 -4.45285776E+003 0 0  18 (Pmm2) n - 1
REM
REM Run started: Sun, 26 Mar 2023 16:45:01 +0100 in /scratch/scratch/uccabz1/launch_tmp_michael/launcher_2023-03-26-15-38-19-822148
REM CASTEP 21.1 from code version cdfb9687+ bz-changes Mon Jan 4 11:18:28 2021 +0000
REM Functional Perdew Burke Ernzerhof Relativity Koelling-Harmon Dispersion off
REM Cut-off 340.0000 eV Grid scale 1.7500 Gmax 16.5316 1/A FBSC none
REM MP grid 3 3 2 Offset 0.000 0.000 0.000 No. kpts 4 Spacing 0.07
REM Total runtime: 403.11 s
REM Overall efficiency: 58.6667 %
REM
REM LiN2.cell (b953e92e767f3f2c67521e63ea917690)
REM ## AIRSS Version 0.9.3 July 2022 commit v0.9.3-8-ga1e635fa32177e30cc
REM compiler GCC version 4.9.2
REM options -cpp -iprefix /scratch/UCL/applications/gcc/4.9.2/bin/../lib/gcc/x86_64-unknown-linux-gnu/4.9.2/ -mtune=corei7 -march=x86-64 -g -Og
REM COMMAND_LINE
REM seed -599849291 -697335753 -855565085 -2074931340 -258874228 -1564269230 1212282240 -2138064735 615560476 57172973 -1601476177 -709071676
REM
REM N 2|1.4|13|15|17|20:21(qc=5)
REM Li 1|1.3|8|9|10|10U:20(qc=5)
REM 
CELL 1.54180    6.80460    6.45403    8.22834   90.00000   90.00000   90.00000
LATT -1
SFAC Li N  
Li     1  0.2052703203629 -0.2235546798327  0.3261551619539 1.0
Li     1  0.2052703203629  0.2235546798327 -0.3261551619539 1.0
Li     1  0.2052703203629  0.2235546798327  0.3261551619539 1.0
Li     1  0.2052703203629 -0.2235546798327 -0.3261551619539 1.0
Li     1 -0.4595292439074 -0.5000000000000  0.3068633723824 1.0
Li     1 -0.4595292439074  0.5000000000000 -0.3068633723824 1.0
N      2  0.2958396306554 -0.4075439707568  0.1480833411882 1.0
N      2  0.2958396306554  0.4075439707568 -0.1480833411882 1.0
N      2  0.2958396306554  0.4075439707568  0.1480833411882 1.0
N      2  0.2958396306554 -0.4075439707568 -0.1480833411882 1.0
N      2 -0.2499861795561 -0.2835396814534 -0.3092327673346 1.0
N      2 -0.2499861795561  0.2835396814534  0.3092327673346 1.0
N      2 -0.2499861795561  0.2835396814534 -0.3092327673346 1.0
N      2 -0.2499861795561 -0.2835396814534  0.3092327673346 1.0
N      2 -0.0847621495085  0.2407558592228 -0.3152064296913 1.0
N      2 -0.0847621495085 -0.2407558592228  0.3152064296913 1.0
N      2 -0.0847621495085 -0.2407558592228 -0.3152064296913 1.0
N      2 -0.0847621495085  0.2407558592228  0.3152064296913 1.0
END
