TITL LiN2-230326-153637-a11f68 -0.0413 83.575884 -1.48573867E+003 0 0  6 (Pmmm) n - 1
REM
REM Run started: Sun, 26 Mar 2023 15:37:28 +0100 in /scratch/scratch/uccabz1/launch_tmp_michael/launcher_2023-03-26-14-36-37-590166
REM CASTEP 21.1 from code version cdfb9687+ bz-changes Mon Jan 4 11:18:28 2021 +0000
REM Functional Perdew Burke Ernzerhof Relativity Koelling-Harmon Dispersion off
REM Cut-off 340.0000 eV Grid scale 1.7500 Gmax 16.5316 1/A FBSC none
REM MP grid 6 4 3 Offset 0.000 0.000 0.000 No. kpts 24 Spacing 0.07
REM Total runtime: 79.17 s
REM Overall efficiency: 61.4 %
REM
REM LiN2.cell (b953e92e767f3f2c67521e63ea917690)
REM ## AIRSS Version 0.9.3 July 2022 commit v0.9.3-8-ga1e635fa32177e30cc
REM compiler GCC version 4.9.2
REM options -cpp -iprefix /scratch/UCL/applications/gcc/4.9.2/bin/../lib/gcc/x86_64-unknown-linux-gnu/4.9.2/ -mtune=corei7 -march=x86-64 -g -Og
REM COMMAND_LINE
REM seed -446901153 759577503 -789689052 -1502277529 -179674641 -1795277788 1952800904 1303998100 1873587427 -2107443936 1945939368 -1011665797
REM
REM N 2|1.4|13|15|17|20:21(qc=5)
REM Li 1|1.3|8|9|10|10U:20(qc=5)
REM 
CELL 1.54180    2.71619    4.20765    7.31275   90.00000   90.00000   90.06229
LATT -1
SFAC Li N  
Li     1  0.2950154936484 -0.2046387271380  0.2500461378841 1.0
Li     1  0.2950154936484 -0.2046387271380 -0.2500461378841 1.0
N      2 -0.2093836510500  0.4336866649875 -0.2505702943077 1.0
N      2 -0.2093836510500  0.4336866649875  0.2505702943077 1.0
N      2 -0.2088421425984  0.1525075621505  0.2505720780956 1.0
N      2 -0.2088421425984  0.1525075621505 -0.2505720780956 1.0
END
