TITL LiN2-230326-173719-1e00e3 -0.0051 76.246848 -1.48471580E+003 0 0  6 (C2) n - 1
REM
REM Run started: Sun, 26 Mar 2023 17:39:40 +0100 in /scratch/scratch/uccabz1/launch_tmp_michael/launcher_2023-03-26-16-37-19-197140
REM CASTEP 21.1 from code version cdfb9687+ bz-changes Mon Jan 4 11:18:28 2021 +0000
REM Functional Perdew Burke Ernzerhof Relativity Koelling-Harmon Dispersion off
REM Cut-off 340.0000 eV Grid scale 1.7500 Gmax 16.5316 1/A FBSC none
REM MP grid 4 5 3 Offset 0.000 0.000 0.000 No. kpts 28 Spacing 0.07
REM Total runtime: 199.43 s
REM Overall efficiency: 77.5 %
REM
REM LiN2.cell (b953e92e767f3f2c67521e63ea917690)
REM ## AIRSS Version 0.9.3 July 2022 commit v0.9.3-8-ga1e635fa32177e30cc
REM compiler GCC version 4.9.2
REM options -cpp -iprefix /scratch/UCL/applications/gcc/4.9.2/bin/../lib/gcc/x86_64-unknown-linux-gnu/4.9.2/ -mtune=corei7 -march=x86-64 -g -Og
REM COMMAND_LINE
REM seed 1491574161 1064793588 1428602408 -1758194444 1699556606 50699761 -1053988855 -372714595 31764669 -1032107308 580092747 -1710537022
REM
REM N 2|1.4|13|15|17|20:21(qc=5)
REM Li 1|1.3|8|9|10|10U:20(qc=5)
REM 
CELL 1.54180    3.92398    3.96805    5.55647   69.07988   83.20395   70.64559
LATT -1
SFAC Li N  
Li     1 -0.2996664880509  0.3246722984840 -0.2462585464915 1.0
Li     1  0.2996664880509 -0.0784137519925 -0.2462585464915 1.0
N      2  0.5677729499208 -0.5421134247859  0.3008426215996 1.0
N      2 -0.5677729499208  0.2412708031863  0.3008426215996 1.0
N      2 -0.1354197783916 -0.2463131462217 -0.2286511751081 1.0
N      2  0.1354197783916  0.4749643213298 -0.2286511751081 1.0
END
