TITL LiN2-230326-171513-22d310 -0.0238 175.344508 -2.95616932E+003 0 0  12 (P3) n - 1
REM
REM Run started: Sun, 26 Mar 2023 17:21:06 +0100 in /scratch/scratch/uccabz1/launch_tmp_michael/launcher_2023-03-26-16-15-13-688091
REM CASTEP 21.1 from code version cdfb9687+ bz-changes Mon Jan 4 11:18:28 2021 +0000
REM Functional Perdew Burke Ernzerhof Relativity Koelling-Harmon Dispersion off
REM Cut-off 340.0000 eV Grid scale 1.7500 Gmax 16.5316 1/A FBSC none
REM MP grid 4 3 3 Offset 0.000 0.000 0.000 No. kpts 10 Spacing 0.07
REM Total runtime: 402.61 s
REM Overall efficiency: 66 %
REM
REM LiN2.cell (b953e92e767f3f2c67521e63ea917690)
REM ## AIRSS Version 0.9.3 July 2022 commit v0.9.3-8-ga1e635fa32177e30cc
REM compiler GCC version 4.9.2
REM options -cpp -iprefix /scratch/UCL/applications/gcc/4.9.2/bin/../lib/gcc/x86_64-unknown-linux-gnu/4.9.2/ -mtune=corei7 -march=x86-64 -g -Og
REM COMMAND_LINE
REM seed 1086885816 -1783862470 947526544 502687060 -1646772227 -8591375 1781632597 -1421485347 1718115284 -231749802 -1293270043 1098293928
REM
REM N 2|1.4|13|15|17|20:21(qc=5)
REM Li 1|1.3|8|9|10|10U:20(qc=5)
REM 
CELL 1.54180    4.45984    6.73785    6.73785  120.00000   90.00000   90.00000
LATT -1
SFAC Li N  
Li     1  0.4826366196534  0.0810511608704 -0.2227487112605 1.0
Li     1  0.4826366196534  0.2227487112605  0.3037997721309 1.0
Li     1  0.4826366196534 -0.3037997721309 -0.0810511608704 1.0
Li     1 -0.0199377221270  0.3333333666667 -0.3333333666667 1.0
N      2  0.0697601988553 -0.1382786168873 -0.0473453846513 1.0
N      2  0.0697601988553  0.0473453846513 -0.0909333322359 1.0
N      2  0.0697601988553  0.0909333322359  0.1382786168873 1.0
N      2 -0.2736715987102 -0.1983486920815  0.4516087472812 1.0
N      2 -0.2736715987102 -0.4516087472812  0.3500424606373 1.0
N      2 -0.2736715987102 -0.3500424606373  0.1983486920815 1.0
N      2 -0.3983440023649  0.0000000333333 -0.0000000333333 1.0
N      2 -0.0051172349037 -0.3333333000000  0.3333333000000 1.0
END
