TITL LiN2-230326-171216-9fe710 0.0242 198.996190 -4.44522601E+003 0 0  18 (I-4) n - 1
REM
REM Run started: Sun, 26 Mar 2023 17:18:15 +0100 in /scratch/scratch/uccabz1/launch_tmp_michael/launcher_2023-03-26-16-12-16-114904
REM CASTEP 21.1 from code version cdfb9687+ bz-changes Mon Jan 4 11:18:28 2021 +0000
REM Functional Perdew Burke Ernzerhof Relativity Koelling-Harmon Dispersion off
REM Cut-off 340.0000 eV Grid scale 1.7500 Gmax 16.5316 1/A FBSC none
REM MP grid 4 3 3 Offset 0.000 0.000 0.000 No. kpts 18 Spacing 0.07
REM Total runtime: 437.78 s
REM Overall efficiency: 73.2857 %
REM
REM LiN2.cell (b953e92e767f3f2c67521e63ea917690)
REM ## AIRSS Version 0.9.3 July 2022 commit v0.9.3-8-ga1e635fa32177e30cc
REM compiler GCC version 4.9.2
REM options -cpp -iprefix /scratch/UCL/applications/gcc/4.9.2/bin/../lib/gcc/x86_64-unknown-linux-gnu/4.9.2/ -mtune=corei7 -march=x86-64 -g -Og
REM COMMAND_LINE
REM seed -186616240 -1055842424 1923431331 -1935580116 1895677599 641895669 593647005 -2039818056 -647884999 1651572772 290543218 1433329056
REM
REM N 2|1.4|13|15|17|20:21(qc=5)
REM Li 1|1.3|8|9|10|10U:20(qc=5)
REM 
CELL 1.54180    6.61990    6.61990    6.61990   86.79008  121.87023  121.87023
LATT -1
SFAC Li N  
Li     1 -0.5911650494615  0.3537542592846  0.3012352067690 1.0
Li     1  0.5911649494615 -0.1075998437695 -0.0550806912539 1.0
Li     1  0.0525190525156 -0.3012352067690  0.1075998437695 1.0
Li     1 -0.0525191525156  0.0550806912539 -0.3537542592846 1.0
Li     1 -0.0000000500000  0.3546244476151  0.3546244976151 1.0
Li     1 -0.0000000500000 -0.3546244976151 -0.3546244476151 1.0
N      2 -0.2062485810951  0.2071754853594 -0.1496513738269 1.0
N      2  0.2062484810951  0.0565971072681  0.4134240664545 1.0
N      2  0.3568268591864  0.1496513738269 -0.0565971072681 1.0
N      2 -0.3568269591863 -0.4134240664545 -0.2071754853594 1.0
N      2  0.0611455201550  0.3914697005888  0.0576059736137 1.0
N      2 -0.0611456201550 -0.0035396465414  0.3303241804337 1.0
N      2  0.3338637269751 -0.0576059736137  0.0035396465414 1.0
N      2 -0.3338638269751 -0.3303241804337 -0.3914697005888 1.0
N      2  0.4134609986237 -0.4047622517106 -0.3415150499783 1.0
N      2 -0.4134610986237  0.2450238513980  0.1817767496657 1.0
N      2 -0.0632472017323  0.3415150499783 -0.2450238513980 1.0
N      2  0.0632471017323 -0.1817767496657  0.4047622517106 1.0
END
