TITL LiN2-230326-151546-72fe4e -0.0028 187.816411 -2.96987976E+003 0 0  12 (P4/m) n - 1
REM
REM Run started: Sun, 26 Mar 2023 15:17:14 +0100 in /scratch/scratch/uccabz1/launch_tmp_michael/launcher_2023-03-26-14-15-46-721277
REM CASTEP 21.1 from code version cdfb9687+ bz-changes Mon Jan 4 11:18:28 2021 +0000
REM Functional Perdew Burke Ernzerhof Relativity Koelling-Harmon Dispersion off
REM Cut-off 340.0000 eV Grid scale 1.7500 Gmax 16.5316 1/A FBSC none
REM MP grid 3 3 3 Offset 0.000 0.000 0.000 No. kpts 6 Spacing 0.07
REM Total runtime: 100.95 s
REM Overall efficiency: 57.4 %
REM
REM LiN2.cell (b953e92e767f3f2c67521e63ea917690)
REM ## AIRSS Version 0.9.3 July 2022 commit v0.9.3-8-ga1e635fa32177e30cc
REM compiler GCC version 4.9.2
REM options -cpp -iprefix /scratch/UCL/applications/gcc/4.9.2/bin/../lib/gcc/x86_64-unknown-linux-gnu/4.9.2/ -mtune=corei7 -march=x86-64 -g -Og
REM COMMAND_LINE
REM seed -583342546 1301431107 2045820562 1624113830 -1329110817 1896326624 -314718600 -387364878 -1355358813 461746650 -1338275961 815257862
REM
REM N 2|1.4|13|15|17|20:21(qc=5)
REM Li 1|1.3|8|9|10|10U:20(qc=5)
REM 
CELL 1.54180    6.24826    6.24826    4.81078   90.00000   90.00000   90.00000
LATT -1
SFAC Li N  
Li     1  0.2069146716317 -0.3195173715155  0.2687239221422 1.0
Li     1 -0.2069146716317  0.3195173715155  0.2687239221422 1.0
Li     1  0.3195173715155  0.2069146716317  0.2687239221422 1.0
Li     1 -0.3195173715155 -0.2069146716317  0.2687239221422 1.0
N      2 -0.2317560061945  0.2741756258958 -0.3532163337236 1.0
N      2  0.2317560061945 -0.2741756258958 -0.3532163337236 1.0
N      2 -0.2741756258958 -0.2317560061945 -0.3532163337236 1.0
N      2  0.2741756258958  0.2317560061945 -0.3532163337236 1.0
N      2 -0.2740894311024 -0.2317587480019 -0.1104469884186 1.0
N      2  0.2740894311024  0.2317587480019 -0.1104469884186 1.0
N      2  0.2317587480019 -0.2740894311024 -0.1104469884186 1.0
N      2 -0.2317587480019  0.2740894311024 -0.1104469884186 1.0
END
