TITL LiN2-230326-155506-8fda5e 0.0795 311.507950 -4.45254490E+003 0 0  18 (I41) n - 1
REM
REM Run started: Sun, 26 Mar 2023 16:08:52 +0100 in /scratch/scratch/uccabz1/launch_tmp_michael/launcher_2023-03-26-14-55-06-371607
REM CASTEP 21.1 from code version cdfb9687+ bz-changes Mon Jan 4 11:18:28 2021 +0000
REM Functional Perdew Burke Ernzerhof Relativity Koelling-Harmon Dispersion off
REM Cut-off 340.0000 eV Grid scale 1.7500 Gmax 16.5316 1/A FBSC none
REM MP grid 3 3 3 Offset 0.000 0.000 0.000 No. kpts 6 Spacing 0.07
REM Total runtime: 908.19 s
REM Overall efficiency: 65.7 %
REM
REM LiN2.cell (b953e92e767f3f2c67521e63ea917690)
REM ## AIRSS Version 0.9.3 July 2022 commit v0.9.3-8-ga1e635fa32177e30cc
REM compiler GCC version 4.9.2
REM options -cpp -iprefix /scratch/UCL/applications/gcc/4.9.2/bin/../lib/gcc/x86_64-unknown-linux-gnu/4.9.2/ -mtune=corei7 -march=x86-64 -g -Og
REM COMMAND_LINE
REM seed 703691167 -804118287 943775504 -209433422 1631771578 2123659490 1407577968 1215273728 -1110282746 -197564428 1277118830 139810338
REM
REM N 2|1.4|13|15|17|20:21(qc=5)
REM Li 1|1.3|8|9|10|10U:20(qc=5)
REM 
CELL 1.54180    7.64998    7.64998    7.58909  120.26575  120.26575   90.00000
LATT -1
SFAC Li N  
Li     1  0.0329434347525  0.3058396191542  0.1748057131474 1.0
Li     1  0.1418622783949 -0.1310339060068  0.1748057131474 1.0
Li     1 -0.3810339060068  0.2829434347525 -0.3251942868526 1.0
Li     1  0.0558396191542  0.3918622783949 -0.3251942868526 1.0
Li     1 -0.1933134472832 -0.1933134472832 -0.3866268945664 1.0
Li     1 -0.4433134472832  0.0566865527168  0.1133731054336 1.0
N      2 -0.4950727087812  0.6202243980972  0.3922641518636 1.0
N      2 -0.1126631393552 -0.2279602462336  0.3922641518636 1.0
N      2 -0.4779602462336 -0.2450727087812 -0.1077358481364 1.0
N      2  0.3702243980972  0.1373368606448 -0.1077358481364 1.0
N      2  0.1880595738216 -0.5327966461885 -0.4630733208419 1.0
N      2 -0.6511328946635  0.0697233253466 -0.4630733208419 1.0
N      2 -0.1802766746534  0.4380595738216  0.0369266791581 1.0
N      2  0.2172033538115 -0.4011328946635  0.0369266791581 1.0
N      2 -0.1495422771659 -0.3941796098933  0.2145630031141 1.0
N      2  0.3641052802800  0.6087426130074  0.2145630031141 1.0
N      2  0.3587426130074  0.1004577228341 -0.2854369968859 1.0
N      2  0.3558203901067 -0.3858947197200 -0.2854369968859 1.0
END
