TITL LiN2-230326-193407-5c0956 0.0216 230.639172 -4.45611978E+003 0 0  18 (P32) n - 1
REM
REM Run started: Sun, 26 Mar 2023 19:55:33 +0100 in /scratch/scratch/uccabz1/launch_tmp_michael/launcher_2023-03-26-18-34-07-360794
REM CASTEP 21.1 from code version cdfb9687+ bz-changes Mon Jan 4 11:18:28 2021 +0000
REM Functional Perdew Burke Ernzerhof Relativity Koelling-Harmon Dispersion off
REM Cut-off 340.0000 eV Grid scale 1.7500 Gmax 16.5316 1/A FBSC none
REM MP grid 5 5 1 Offset 0.000 0.000 0.000 No. kpts 5 Spacing 0.07
REM Total runtime: 1289.67 s
REM Overall efficiency: 70.8182 %
REM
REM LiN2.cell (b953e92e767f3f2c67521e63ea917690)
REM ## AIRSS Version 0.9.3 July 2022 commit v0.9.3-8-ga1e635fa32177e30cc
REM compiler GCC version 4.9.2
REM options -cpp -iprefix /scratch/UCL/applications/gcc/4.9.2/bin/../lib/gcc/x86_64-unknown-linux-gnu/4.9.2/ -mtune=corei7 -march=x86-64 -g -Og
REM COMMAND_LINE
REM seed -1126269581 -2129702437 829117313 966966550 -1098961378 351446986 -1646988964 476311423 1535713200 -1788176761 1691217766 314528614
REM
REM N 2|1.4|13|15|17|20:21(qc=5)
REM Li 1|1.3|8|9|10|10U:20(qc=5)
REM 
CELL 1.54180    3.40268    3.40268   23.00176   90.00000   90.00000  120.00000
LATT -1
SFAC Li N  
Li     1  0.0959612642117 -0.5735343176730  0.3633566444449 1.0
Li     1  0.3305044181153 -0.0959612642117 -0.3033100222217 1.0
Li     1  0.5735343176730 -0.3305044181153  0.0300233111116 1.0
Li     1 -0.1125312289906  0.4803572394410  0.1410941138843 1.0
Li     1  0.5928884684316  0.1125312289906  0.4744274472177 1.0
Li     1 -0.4803572394410 -0.5928884684316 -0.1922392194490 1.0
N      2 -0.5653922441237 -0.0525080148292 -0.3896245796575 1.0
N      2  0.5128842292945  0.5653922441237 -0.0562912463242 1.0
N      2  0.0525080148292 -0.5128842292945  0.2770420870092 1.0
N      2 -0.5324334889720 -0.0225248646212 -0.4396987054721 1.0
N      2 -0.4900913756491  0.5324334889720 -0.1063653721388 1.0
N      2  0.0225248646212  0.4900913756491  0.2269679611945 1.0
N      2 -0.0060356412992  0.3002006541430 -0.2674577087461 1.0
N      2  0.3062362954422  0.0060356412992  0.0658756245873 1.0
N      2 -0.3002006541430 -0.3062362954422  0.3992089579206 1.0
N      2 -0.1541892557495  0.0219995810576 -0.2272644644536 1.0
N      2  0.1761888368070  0.1541892557495  0.1060688688797 1.0
N      2 -0.0219995810576 -0.1761888368070 -0.5605977977869 1.0
END
