TITL LiN2-230326-182200-41c073 -0.0065 172.289792 -2.96567989E+003 0 0  12 (P3) n - 1
REM
REM Run started: Sun, 26 Mar 2023 18:27:42 +0100 in /scratch/scratch/uccabz1/launch_tmp_michael/launcher_2023-03-26-17-22-00-101307
REM CASTEP 21.1 from code version cdfb9687+ bz-changes Mon Jan 4 11:18:28 2021 +0000
REM Functional Perdew Burke Ernzerhof Relativity Koelling-Harmon Dispersion off
REM Cut-off 340.0000 eV Grid scale 1.7500 Gmax 16.5316 1/A FBSC none
REM MP grid 3 3 4 Offset 0.000 0.000 0.000 No. kpts 10 Spacing 0.07
REM Total runtime: 405.99 s
REM Overall efficiency: 67.1429 %
REM
REM LiN2.cell (b953e92e767f3f2c67521e63ea917690)
REM ## AIRSS Version 0.9.3 July 2022 commit v0.9.3-8-ga1e635fa32177e30cc
REM compiler GCC version 4.9.2
REM options -cpp -iprefix /scratch/UCL/applications/gcc/4.9.2/bin/../lib/gcc/x86_64-unknown-linux-gnu/4.9.2/ -mtune=corei7 -march=x86-64 -g -Og
REM COMMAND_LINE
REM seed 1143466185 -1779766187 361891585 548619100 -717440997 630153966 1712181537 15854546 1665122996 -1934566172 -1926828028 1269787631
REM
REM N 2|1.4|13|15|17|20:21(qc=5)
REM Li 1|1.3|8|9|10|10U:20(qc=5)
REM 
CELL 1.54180    6.75171    6.75171    4.36417   90.00000   90.00000  120.00000
LATT -1
SFAC Li N  
Li     1 -0.4704795562335 -0.4722809364707 -0.0177651329709 1.0
Li     1 -0.0018013802372  0.4704795562335 -0.0177651329709 1.0
Li     1  0.4722809364707  0.0018013802372 -0.0177651329709 1.0
Li     1  0.3333333333333 -0.3333333333333 -0.5195570328925 1.0
N      2 -0.1956720898449  0.1525704948430  0.3539913872028 1.0
N      2  0.3482425846879  0.1956720898449  0.3539913872028 1.0
N      2 -0.1525704948430 -0.3482425846879  0.3539913872028 1.0
N      2  0.3033455748399  0.3318587318807  0.4265913918572 1.0
N      2  0.0285131570408 -0.3033455748399  0.4265913918572 1.0
N      2 -0.3318587318807 -0.0285131570408  0.4265913918572 1.0
N      2  0.3333333333333 -0.3333333333333 -0.0239028430169 1.0
N      2 -0.3333333333333  0.3333333333333 -0.0764643623579 1.0
END
