TITL LiN2-230326-185536-f8bd3c 0.0233 117.383421 -2.22336769E+003 0 0  9 (Imm2) n - 1
REM
REM Run started: Sun, 26 Mar 2023 18:58:22 +0100 in /scratch/scratch/uccabz1/launch_tmp_michael/launcher_2023-03-26-17-55-36-417995
REM CASTEP 21.1 from code version cdfb9687+ bz-changes Mon Jan 4 11:18:28 2021 +0000
REM Functional Perdew Burke Ernzerhof Relativity Koelling-Harmon Dispersion off
REM Cut-off 340.0000 eV Grid scale 1.7500 Gmax 16.5316 1/A FBSC none
REM MP grid 5 3 3 Offset 0.000 0.000 0.000 No. kpts 16 Spacing 0.07
REM Total runtime: 218.26 s
REM Overall efficiency: 75.3333 %
REM
REM LiN2.cell (b953e92e767f3f2c67521e63ea917690)
REM ## AIRSS Version 0.9.3 July 2022 commit v0.9.3-8-ga1e635fa32177e30cc
REM compiler GCC version 4.9.2
REM options -cpp -iprefix /scratch/UCL/applications/gcc/4.9.2/bin/../lib/gcc/x86_64-unknown-linux-gnu/4.9.2/ -mtune=corei7 -march=x86-64 -g -Og
REM COMMAND_LINE
REM seed 1952144915 -883538032 1343731768 753682002 -1555802926 1475836436 -1866620316 1186180372 -592260158 849626150 -1268764995 1747755279
REM
REM N 2|1.4|13|15|17|20:21(qc=5)
REM Li 1|1.3|8|9|10|10U:20(qc=5)
REM 
CELL 1.54180    3.39120    6.12976    6.12976   81.89112   73.94155   73.94155
LATT -1
SFAC Li N  
Li     1  0.3694460909970 -0.1049161166925  0.3660239346984 1.0
Li     1  0.3694460909970  0.3660239346984 -0.1049161166925 1.0
Li     1  0.0716270422526 -0.0716270422526 -0.0716270422526 1.0
N      2 -0.1277359166927 -0.3020843473735  0.1647694864911 1.0
N      2  0.2650507775751  0.1647694864911 -0.3020843473735 1.0
N      2  0.2650507775751 -0.3020843473735  0.1647694864911 1.0
N      2 -0.1277359166927  0.1647694864911 -0.3020843473735 1.0
N      2 -0.3199745230057  0.0741691683478 -0.4342201223364 1.0
N      2 -0.3199745230057 -0.4342201223364  0.0741691683478 1.0
END
