TITL LiN2-230326-180547-c20cc9 -0.0484 101.609531 -2.22708213E+003 0 0  9 (Pmmm) n - 1
REM
REM Run started: Sun, 26 Mar 2023 18:07:12 +0100 in /scratch/scratch/uccabz1/launch_tmp_michael/launcher_2023-03-26-17-05-47-672554
REM CASTEP 21.1 from code version cdfb9687+ bz-changes Mon Jan 4 11:18:28 2021 +0000
REM Functional Perdew Burke Ernzerhof Relativity Koelling-Harmon Dispersion off
REM Cut-off 340.0000 eV Grid scale 1.7500 Gmax 16.5316 1/A FBSC none
REM MP grid 6 3 2 Offset 0.000 0.000 0.000 No. kpts 6 Spacing 0.07
REM Total runtime: 87.72 s
REM Overall efficiency: 44.1667 %
REM
REM LiN2.cell (b953e92e767f3f2c67521e63ea917690)
REM ## AIRSS Version 0.9.3 July 2022 commit v0.9.3-8-ga1e635fa32177e30cc
REM compiler GCC version 4.9.2
REM options -cpp -iprefix /scratch/UCL/applications/gcc/4.9.2/bin/../lib/gcc/x86_64-unknown-linux-gnu/4.9.2/ -mtune=corei7 -march=x86-64 -g -Og
REM COMMAND_LINE
REM seed -1786960723 1556235523 -99358553 382294831 -1661131811 679542115 1306151021 1045852324 -2025673387 -36774687 -1900723364 2021541374
REM
REM N 2|1.4|13|15|17|20:21(qc=5)
REM Li 1|1.3|8|9|10|10U:20(qc=5)
REM 
CELL 1.54180    2.81365    5.01617    7.19932   90.00000   90.00000   90.00000
LATT -1
SFAC Li N  
Li     1  0.5000000000000 -0.0000000000000  0.2282948179751 1.0
Li     1  0.5000000000000 -0.0000000000000 -0.2282948179751 1.0
Li     1 -0.5000000000000  0.5000000000000  0.0000000000000 1.0
N      2 -0.0001854590831  0.2480203380325  0.4191793808639 1.0
N      2  0.0001854590831 -0.2480203380325  0.4191793808639 1.0
N      2 -0.0001854590831 -0.2480203380325 -0.4191793808639 1.0
N      2  0.0001854590831  0.2480203380325 -0.4191793808639 1.0
N      2  0.0000000000000  0.1260014254868  0.0000000000000 1.0
N      2 -0.0000000000000 -0.1260014254868  0.0000000000000 1.0
END
