TITL LiN2-230326-170848-b8fd20 0.0072 77.367813 -1.48460358E+003 0 0  6 (Imma) n - 1
REM
REM Run started: Sun, 26 Mar 2023 17:10:00 +0100 in /scratch/scratch/uccabz1/launch_tmp_michael/launcher_2023-03-26-16-08-45-923632
REM CASTEP 21.1 from code version cdfb9687+ bz-changes Mon Jan 4 11:18:28 2021 +0000
REM Functional Perdew Burke Ernzerhof Relativity Koelling-Harmon Dispersion off
REM Cut-off 340.0000 eV Grid scale 1.7500 Gmax 16.5316 1/A FBSC none
REM MP grid 4 4 4 Offset 0.000 0.000 0.000 No. kpts 17 Spacing 0.07
REM Total runtime: 78.99 s
REM Overall efficiency: 65.2 %
REM
REM LiN2.cell (b953e92e767f3f2c67521e63ea917690)
REM ## AIRSS Version 0.9.3 July 2022 commit v0.9.3-8-ga1e635fa32177e30cc
REM compiler GCC version 4.9.2
REM options -cpp -iprefix /scratch/UCL/applications/gcc/4.9.2/bin/../lib/gcc/x86_64-unknown-linux-gnu/4.9.2/ -mtune=corei7 -march=x86-64 -g -Og
REM COMMAND_LINE
REM seed 983357261 -1752585062 1355387716 -804821287 1007636138 -1368487109 1223306332 696157466 1510489306 1333254720 -1140873162 1304754135
REM
REM N 2|1.4|13|15|17|20:21(qc=5)
REM Li 1|1.3|8|9|10|10U:20(qc=5)
REM 
CELL 1.54180    4.69348    4.69348    4.69348  103.21021  120.38237  105.40899
LATT -1
SFAC Li N  
Li     1  0.2500000000000  0.0013219642959  0.2513219642959 1.0
Li     1 -0.2500000000000  0.4986780357041  0.2486780357041 1.0
N      2  0.3789335694017 -0.5089144870904  0.3682453419071 1.0
N      2  0.3771598289976  0.0089144870904 -0.1121519435078 1.0
N      2  0.1228401710024  0.5106882274946  0.1317546580929 1.0
N      2  0.1210664305983 -0.0106882274946 -0.3878480564922 1.0
END
