TITL LiN2-230326-193611-48ef48 0.0198 57.634841 -1.48556991E+003 0 0  6 (P21) n - 1
REM
REM Run started: Sun, 26 Mar 2023 19:37:00 +0100 in /scratch/scratch/uccabz1/launch_tmp_michael/launcher_2023-03-26-18-36-11-756362
REM CASTEP 21.1 from code version cdfb9687+ bz-changes Mon Jan 4 11:18:28 2021 +0000
REM Functional Perdew Burke Ernzerhof Relativity Koelling-Harmon Dispersion off
REM Cut-off 340.0000 eV Grid scale 1.7500 Gmax 16.5316 1/A FBSC none
REM MP grid 5 4 4 Offset 0.000 0.000 0.000 No. kpts 24 Spacing 0.07
REM Total runtime: 66.38 s
REM Overall efficiency: 52 %
REM
REM LiN2.cell (b953e92e767f3f2c67521e63ea917690)
REM ## AIRSS Version 0.9.3 July 2022 commit v0.9.3-8-ga1e635fa32177e30cc
REM compiler GCC version 4.9.2
REM options -cpp -iprefix /scratch/UCL/applications/gcc/4.9.2/bin/../lib/gcc/x86_64-unknown-linux-gnu/4.9.2/ -mtune=corei7 -march=x86-64 -g -Og
REM COMMAND_LINE
REM seed -1278962777 -1967705620 191881416 -119933979 -1847123808 507592165 -1728381418 -1036321803 366814427 -422639530 1199211010 -1438739819
REM
REM N 2|1.4|13|15|17|20:21(qc=5)
REM Li 1|1.3|8|9|10|10U:20(qc=5)
REM 
CELL 1.54180    2.97258    4.76611    4.20280  104.54656   90.00000   90.00000
LATT -1
SFAC Li N  
Li     1 -0.4638824233664  0.2693058704984  0.1563410649158 1.0
Li     1  0.0361175766336 -0.2693058704984 -0.1563410649158 1.0
N      2 -0.4290915335980 -0.2174530855914  0.2248555172516 1.0
N      2  0.0709084664020  0.2174530855914 -0.2248555172516 1.0
N      2  0.0699582569644  0.2657115589708  0.5104122422522 1.0
N      2 -0.4300417430356 -0.2657115589708 -0.5104122422522 1.0
END
