TITL LiN2-230326-202646-fe435d -0.0183 106.979196 -2.22533823E+003 0 0  9 (Amm2) n - 1
REM
REM Run started: Sun, 26 Mar 2023 20:35:28 +0100 in /scratch/scratch/uccabz1/launch_tmp_michael/launcher_2023-03-26-19-26-46-846349
REM CASTEP 21.1 from code version cdfb9687+ bz-changes Mon Jan 4 11:18:28 2021 +0000
REM Functional Perdew Burke Ernzerhof Relativity Koelling-Harmon Dispersion off
REM Cut-off 340.0000 eV Grid scale 1.7500 Gmax 16.5316 1/A FBSC none
REM MP grid 7 2 3 Offset 0.000 0.000 0.000 No. kpts 11 Spacing 0.07
REM Total runtime: 638.05 s
REM Overall efficiency: 52.75 %
REM
REM LiN2.cell (b953e92e767f3f2c67521e63ea917690)
REM ## AIRSS Version 0.9.3 July 2022 commit v0.9.3-8-ga1e635fa32177e30cc
REM compiler GCC version 4.9.2
REM options -cpp -iprefix /scratch/UCL/applications/gcc/4.9.2/bin/../lib/gcc/x86_64-unknown-linux-gnu/4.9.2/ -mtune=corei7 -march=x86-64 -g -Og
REM COMMAND_LINE
REM seed -154861748 -935165165 41920163 705293453 -500326088 -1721978512 1272189019 761530468 472644851 1038812490 -1923046706 431754911
REM
REM N 2|1.4|13|15|17|20:21(qc=5)
REM Li 1|1.3|8|9|10|10U:20(qc=5)
REM 
CELL 1.54180    2.27356    7.28754    6.57145   90.00000  100.72177   90.00000
LATT -1
SFAC Li N  
Li     1  0.0347121358567 -0.2374872812247  0.2036739573166 1.0
Li     1  0.0347121358567  0.2374872812247  0.2036739573166 1.0
Li     1 -0.1960695161304  0.5000000000000 -0.2362785726804 1.0
N      2 -0.3260128445488 -0.2436783438863  0.4707033893778 1.0
N      2 -0.3260128445488  0.2436783438863  0.4707033893778 1.0
N      2  0.2294547740040 -0.2944105808641 -0.4256996451800 1.0
N      2  0.2294547740040  0.2944105808641 -0.4256996451800 1.0
N      2  0.4585273927534  0.4171171406893  0.0613045848258 1.0
N      2  0.4585273927534 -0.4171171406893  0.0613045848258 1.0
END
