TITL LiN2-230326-161848-6b57c0 0.0465 259.526463 -4.45439227E+003 0 0  18 (Cm) n - 1
REM
REM Run started: Sun, 26 Mar 2023 16:56:52 +0100 in /scratch/scratch/uccabz1/launch_tmp_michael/launcher_2023-03-26-15-18-48-133397
REM CASTEP 21.1 from code version cdfb9687+ bz-changes Mon Jan 4 11:18:28 2021 +0000
REM Functional Perdew Burke Ernzerhof Relativity Koelling-Harmon Dispersion off
REM Cut-off 340.0000 eV Grid scale 1.7500 Gmax 16.5316 1/A FBSC none
REM MP grid 5 3 3 Offset 0.000 0.000 0.000 No. kpts 16 Spacing 0.07
REM Total runtime: 3030 s
REM Overall efficiency: 68.5833 %
REM
REM LiN2.cell (b953e92e767f3f2c67521e63ea917690)
REM ## AIRSS Version 0.9.3 July 2022 commit v0.9.3-8-ga1e635fa32177e30cc
REM compiler GCC version 4.9.2
REM options -cpp -iprefix /scratch/UCL/applications/gcc/4.9.2/bin/../lib/gcc/x86_64-unknown-linux-gnu/4.9.2/ -mtune=corei7 -march=x86-64 -g -Og
REM COMMAND_LINE
REM seed 1979557522 -244235196 1803532567 681154952 358593195 1072757048 -1908385459 248027620 -1166189540 1119824158 -8061519 -592573279
REM
REM N 2|1.4|13|15|17|20:21(qc=5)
REM Li 1|1.3|8|9|10|10U:20(qc=5)
REM 
CELL 1.54180    8.66818    9.95529    9.95529   50.01763   33.60871   33.60871
LATT -1
SFAC Li N  
Li     1  0.6084692904567  0.4370971741536 -0.0145392996117 1.0
Li     1  0.6084692904567 -0.0145392996117  0.4370971741536 1.0
Li     1  0.2749077562133  0.2602258701487 -0.2475880859915 1.0
Li     1  0.2749077562133 -0.2475880859915  0.2602258701487 1.0
Li     1 -0.0320200866383  0.0563960722370  0.4871565421731 1.0
Li     1 -0.0320200866383  0.4871565421731  0.0563960722370 1.0
N      2 -0.4897977408734  0.4122830157989  0.2541845885284 1.0
N      2 -0.4897977408734  0.2541845885284  0.4122830157989 1.0
N      2  0.1064488883367  0.0698256471374 -0.3831209421318 1.0
N      2  0.1064488883367 -0.3831209421318  0.0698256471374 1.0
N      2 -0.0486724829395 -0.2422931610508  0.1802763876846 1.0
N      2 -0.0486724829395  0.1802763876846 -0.2422931610508 1.0
N      2 -0.2140508520731 -0.5856595301606  0.0748586932495 1.0
N      2 -0.2140508520731  0.0748586932495 -0.5856595301606 1.0
N      2  0.2212924168968 -0.2927120739230 -0.4311978738656 1.0
N      2  0.2212924168968 -0.4311978738656 -0.2927120739230 1.0
N      2  0.4810576106207 -0.0361318145776  0.1028507902014 1.0
N      2  0.4810576106207  0.1028507902014 -0.0361318145776 1.0
END
