TITL LiN2-230326-200301-9676ec 0.0042 102.659562 -2.22779827E+003 0 0  9 (P-1) n - 1
REM
REM Run started: Sun, 26 Mar 2023 20:08:41 +0100 in /scratch/scratch/uccabz1/launch_tmp_michael/launcher_2023-03-26-19-03-01-527094
REM CASTEP 21.1 from code version cdfb9687+ bz-changes Mon Jan 4 11:18:28 2021 +0000
REM Functional Perdew Burke Ernzerhof Relativity Koelling-Harmon Dispersion off
REM Cut-off 340.0000 eV Grid scale 1.7500 Gmax 16.5316 1/A FBSC none
REM MP grid 5 4 3 Offset 0.000 0.000 0.000 No. kpts 30 Spacing 0.07
REM Total runtime: 410.57 s
REM Overall efficiency: 75.1429 %
REM
REM LiN2.cell (b953e92e767f3f2c67521e63ea917690)
REM ## AIRSS Version 0.9.3 July 2022 commit v0.9.3-8-ga1e635fa32177e30cc
REM compiler GCC version 4.9.2
REM options -cpp -iprefix /scratch/UCL/applications/gcc/4.9.2/bin/../lib/gcc/x86_64-unknown-linux-gnu/4.9.2/ -mtune=corei7 -march=x86-64 -g -Og
REM COMMAND_LINE
REM seed 1541421956 1980978247 515607925 259395626 -1459859049 1318345545 1780265858 197729793 -1376209913 1046227103 -925670070 -230299271
REM
REM N 2|1.4|13|15|17|20:21(qc=5)
REM Li 1|1.3|8|9|10|10U:20(qc=5)
REM 
CELL 1.54180    4.15577    5.99584    7.71231   50.16320   56.85011   44.92944
LATT -1
SFAC Li N  
Li     1 -0.4746897074193  0.3090886009913  0.4083474550693 1.0
Li     1  0.4746897074193 -0.3090886009913 -0.4083474550693 1.0
Li     1  0.5000000000000  0.0000000000000  0.0000000000000 1.0
N      2  0.2128531626087 -0.1363694231892  0.3243283496092 1.0
N      2 -0.2128531626087  0.1363694231892 -0.3243283496092 1.0
N      2  0.0149035888193  0.2439472426502  0.5015407342491 1.0
N      2 -0.0149035888193 -0.2439472426502 -0.5015407342491 1.0
N      2 -0.5225263762463  0.4257988300112 -0.0122648172030 1.0
N      2  0.5225263762463 -0.4257988300112  0.0122648172030 1.0
END
