TITL LiN2-230326-192952-eeb016 0.0635 246.425845 -4.45549473E+003 0 0  18 (P31) n - 1
REM
REM Run started: Sun, 26 Mar 2023 19:55:18 +0100 in /scratch/scratch/uccabz1/launch_tmp_michael/launcher_2023-03-26-18-29-52-657261
REM CASTEP 21.1 from code version cdfb9687+ bz-changes Mon Jan 4 11:18:28 2021 +0000
REM Functional Perdew Burke Ernzerhof Relativity Koelling-Harmon Dispersion off
REM Cut-off 340.0000 eV Grid scale 1.7500 Gmax 16.5316 1/A FBSC none
REM MP grid 5 2 2 Offset 0.000 0.000 0.000 No. kpts 10 Spacing 0.07
REM Total runtime: 1626.58 s
REM Overall efficiency: 62.5455 %
REM
REM LiN2.cell (b953e92e767f3f2c67521e63ea917690)
REM ## AIRSS Version 0.9.3 July 2022 commit v0.9.3-8-ga1e635fa32177e30cc
REM compiler GCC version 4.9.2
REM options -cpp -iprefix /scratch/UCL/applications/gcc/4.9.2/bin/../lib/gcc/x86_64-unknown-linux-gnu/4.9.2/ -mtune=corei7 -march=x86-64 -g -Og
REM COMMAND_LINE
REM seed -1607207746 1012109768 66244522 -1086616139 564979497 -975294990 -1354073208 -2058658659 1899289315 1960125794 -1211000887 -1969620753
REM
REM N 2|1.4|13|15|17|20:21(qc=5)
REM Li 1|1.3|8|9|10|10U:20(qc=5)
REM 
CELL 1.54180    3.38103    9.17388    9.17388  120.00000   90.00000   90.00000
LATT -1
SFAC Li N  
Li     1 -0.3645619221117 -0.5419661973486 -0.4419184235410 1.0
Li     1 -0.0312285887784  0.4419184235410 -0.1000477738076 1.0
Li     1 -0.6978952554450  0.1000477738076  0.5419661973486 1.0
Li     1 -0.2068415649612  0.1421133656367 -0.2147292719058 1.0
Li     1  0.1264917683721  0.2147292719058  0.3568426375425 1.0
Li     1  0.4598251017055 -0.3568426375425 -0.1421133656367 1.0
N      2  0.0747043244302  0.3270949858270 -0.3980743786541 1.0
N      2  0.4080376577636  0.3980743786541 -0.2748306355189 1.0
N      2 -0.2586290089031  0.2748306355189 -0.3270949858270 1.0
N      2  0.2701367071394 -0.1581226042554 -0.3168148124283 1.0
N      2 -0.3965299595273  0.3168148124283  0.1586922081729 1.0
N      2 -0.0631966261940 -0.1586922081729  0.1581226042554 1.0
N      2  0.2393650975960 -0.0236014715990 -0.3090035318763 1.0
N      2 -0.4273015690706  0.3090035318763  0.2854020602774 1.0
N      2 -0.0939682357373 -0.2854020602774  0.0236014715990 1.0
N      2  0.3024076912406 -0.2908920032852 -0.3242799472785 1.0
N      2  0.6357410245739  0.3242799472785  0.0333879439933 1.0
N      2 -0.0309256420927 -0.0333879439933  0.2908920032852 1.0
END
