TITL LiN2-230326-183827-eb3837 -0.0501 256.905850 -4.45509738E+003 0 0  18 (Pcc2) n - 1
REM
REM Run started: Sun, 26 Mar 2023 18:46:41 +0100 in /scratch/scratch/uccabz1/launch_tmp_michael/launcher_2023-03-26-17-38-27-287217
REM CASTEP 21.1 from code version cdfb9687+ bz-changes Mon Jan 4 11:18:28 2021 +0000
REM Functional Perdew Burke Ernzerhof Relativity Koelling-Harmon Dispersion off
REM Cut-off 340.0000 eV Grid scale 1.7500 Gmax 16.5316 1/A FBSC none
REM MP grid 2 3 3 Offset 0.000 0.000 0.000 No. kpts 4 Spacing 0.07
REM Total runtime: 492.66 s
REM Overall efficiency: 64.9 %
REM
REM LiN2.cell (b953e92e767f3f2c67521e63ea917690)
REM ## AIRSS Version 0.9.3 July 2022 commit v0.9.3-8-ga1e635fa32177e30cc
REM compiler GCC version 4.9.2
REM options -cpp -iprefix /scratch/UCL/applications/gcc/4.9.2/bin/../lib/gcc/x86_64-unknown-linux-gnu/4.9.2/ -mtune=corei7 -march=x86-64 -g -Og
REM COMMAND_LINE
REM seed 365127954 1456238537 -1076528838 182912854 -1517631480 -1394737205 -1136242134 284434068 15639254 952842009 160879155 289672230
REM
REM N 2|1.4|13|15|17|20:21(qc=5)
REM Li 1|1.3|8|9|10|10U:20(qc=5)
REM 
CELL 1.54180    8.11906    6.61607    4.78265   90.00000   90.00000   90.00000
LATT -1
SFAC Li N  
Li     1  0.1894201641644  0.1851926867672 -0.0901463032752 1.0
Li     1  0.1894201641644 -0.1851926867672  0.0901463032752 1.0
Li     1 -0.3105798358356  0.1851926867672  0.0901463032752 1.0
Li     1 -0.3105798358356 -0.1851926867672 -0.0901463032752 1.0
Li     1 -0.2669669188892  0.0000000000000  0.5000000000000 1.0
Li     1  0.2330330811108  0.0000000000000 -0.5000000000000 1.0
N      2 -0.3277923617916  0.5500608364857 -0.4008260063956 1.0
N      2 -0.3277923617916 -0.5500608364857  0.4008260063956 1.0
N      2  0.1722076382084  0.5500608364857  0.4008260063956 1.0
N      2  0.1722076382084 -0.5500608364857 -0.4008260063956 1.0
N      2 -0.4464290801312 -0.0890040886474  0.2533355753415 1.0
N      2 -0.4464290801312  0.0890040886474 -0.2533355753415 1.0
N      2  0.0535709198688 -0.0890040886474 -0.2533355753415 1.0
N      2  0.0535709198688  0.0890040886474  0.2533355753415 1.0
N      2 -0.0949611627970 -0.0980076769631 -0.2478510630127 1.0
N      2 -0.0949611627970  0.0980076769631  0.2478510630127 1.0
N      2  0.4050388372030 -0.0980076769631  0.2478510630127 1.0
N      2  0.4050388372030  0.0980076769631 -0.2478510630127 1.0
END
