TITL LiN2-230326-165238-a1889c 0.0267 57.781294 -1.47909231E+003 0 0  6 (R3) n - 1
REM
REM Run started: Sun, 26 Mar 2023 16:54:31 +0100 in /scratch/scratch/uccabz1/launch_tmp_michael/launcher_2023-03-26-15-52-38-847958
REM CASTEP 21.1 from code version cdfb9687+ bz-changes Mon Jan 4 11:18:28 2021 +0000
REM Functional Perdew Burke Ernzerhof Relativity Koelling-Harmon Dispersion off
REM Cut-off 340.0000 eV Grid scale 1.7500 Gmax 16.5316 1/A FBSC none
REM MP grid 5 5 5 Offset 0.000 0.000 0.000 No. kpts 23 Spacing 0.07
REM Total runtime: 139.06 s
REM Overall efficiency: 54.8333 %
REM
REM LiN2.cell (b953e92e767f3f2c67521e63ea917690)
REM ## AIRSS Version 0.9.3 July 2022 commit v0.9.3-8-ga1e635fa32177e30cc
REM compiler GCC version 4.9.2
REM options -cpp -iprefix /scratch/UCL/applications/gcc/4.9.2/bin/../lib/gcc/x86_64-unknown-linux-gnu/4.9.2/ -mtune=corei7 -march=x86-64 -g -Og
REM COMMAND_LINE
REM seed 690158589 1043515767 792368709 797735830 827446651 -568327828 -142573704 -1876089795 -216962222 -415579351 -1027166908 -978679613
REM
REM N 2|1.4|13|15|17|20:21(qc=5)
REM Li 1|1.3|8|9|10|10U:20(qc=5)
REM 
CELL 1.54180    5.20053    5.20053    5.20053   42.35105   42.35105   42.35105
LATT -1
SFAC Li N  
Li     1  0.0661374717905  0.0661374717905  0.0661374717905 1.0
Li     1 -0.3873158356024 -0.3873158356024 -0.3873158356024 1.0
N      2 -0.3834253190222 -0.1100712595713  0.0372827418351 1.0
N      2 -0.1100712595713  0.0372827418351 -0.3834253190222 1.0
N      2  0.0372827418351 -0.3834253190222 -0.1100712595713 1.0
N      2  0.3132077005703  0.3132077005703  0.3132077005703 1.0
END
