TITL LiN2-230326-172822-a59435 0.4796 233.560512 -4.45580319E+003 0 0  18 (P21) n - 1
REM
REM Run started: Sun, 26 Mar 2023 17:47:15 +0100 in /scratch/scratch/uccabz1/launch_tmp_michael/launcher_2023-03-26-16-28-22-734257
REM CASTEP 21.1 from code version cdfb9687+ bz-changes Mon Jan 4 11:18:28 2021 +0000
REM Functional Perdew Burke Ernzerhof Relativity Koelling-Harmon Dispersion off
REM Cut-off 340.0000 eV Grid scale 1.7500 Gmax 16.5316 1/A FBSC none
REM MP grid 5 3 2 Offset 0.000 0.000 0.000 No. kpts 8 Spacing 0.07
REM Total runtime: 1260.13 s
REM Overall efficiency: 70.75 %
REM
REM LiN2.cell (b953e92e767f3f2c67521e63ea917690)
REM ## AIRSS Version 0.9.3 July 2022 commit v0.9.3-8-ga1e635fa32177e30cc
REM compiler GCC version 4.9.2
REM options -cpp -iprefix /scratch/UCL/applications/gcc/4.9.2/bin/../lib/gcc/x86_64-unknown-linux-gnu/4.9.2/ -mtune=corei7 -march=x86-64 -g -Og
REM COMMAND_LINE
REM seed -1789367538 264990809 1535825228 2118438275 -39309882 361376479 1157246781 -1662810954 -1356962357 -1706223512 1908418105 183916597
REM
REM N 2|1.4|13|15|17|20:21(qc=5)
REM Li 1|1.3|8|9|10|10U:20(qc=5)
REM 
CELL 1.54180    3.19732    7.62938   10.31861   90.00000   90.00000  111.88977
LATT -1
SFAC Li N  
Li     1  0.5413543529770  0.1627229072157 -0.1816183756954 1.0
Li     1 -0.5413543529770 -0.1627229072157  0.3183816243046 1.0
Li     1  0.4744514720234 -0.3096618609166 -0.2498858445872 1.0
Li     1 -0.4744514720234  0.3096618609166  0.2501141554128 1.0
Li     1  0.0301291656158 -0.2102486053927  0.0079058217045 1.0
Li     1 -0.0301291656158  0.2102486053927  0.5079058217045 1.0
N      2 -0.0947827003896 -0.0326854824536 -0.1779017355390 1.0
N      2  0.0947827003896  0.0326854824536  0.3220982644610 1.0
N      2 -0.4094423267650  0.3916232019460 -0.0870941567061 1.0
N      2  0.4094423267650 -0.3916232019460 -0.5870941567061 1.0
N      2 -0.2933400907054  0.5557282762592 -0.0994471455296 1.0
N      2  0.2933400907054 -0.5557282762592  0.4005528544704 1.0
N      2 -0.1355044928117 -0.4579903391055 -0.3495082436133 1.0
N      2  0.1355044928117  0.4579903391055  0.1504917563867 1.0
N      2 -0.2750675181922  0.3760444907473 -0.3659447729600 1.0
N      2  0.2750675181922 -0.3760444907473  0.1340552270400 1.0
N      2  0.3873252379593  0.0766835308302  0.4053875529261 1.0
N      2 -0.3873252379593 -0.0766835308302 -0.0946124470739 1.0
END
