TITL LiN2-230326-193327-afc28c -0.0390 139.024436 -2.96983132E+003 0 0  12 (P43) n - 1
REM
REM Run started: Sun, 26 Mar 2023 19:36:57 +0100 in /scratch/scratch/uccabz1/launch_tmp_michael/launcher_2023-03-26-18-33-27-405917
REM CASTEP 21.1 from code version cdfb9687+ bz-changes Mon Jan 4 11:18:28 2021 +0000
REM Functional Perdew Burke Ernzerhof Relativity Koelling-Harmon Dispersion off
REM Cut-off 340.0000 eV Grid scale 1.7500 Gmax 16.5316 1/A FBSC none
REM MP grid 5 5 2 Offset 0.000 0.000 0.000 No. kpts 7 Spacing 0.07
REM Total runtime: 218.95 s
REM Overall efficiency: 58.25 %
REM
REM LiN2.cell (b953e92e767f3f2c67521e63ea917690)
REM ## AIRSS Version 0.9.3 July 2022 commit v0.9.3-8-ga1e635fa32177e30cc
REM compiler GCC version 4.9.2
REM options -cpp -iprefix /scratch/UCL/applications/gcc/4.9.2/bin/../lib/gcc/x86_64-unknown-linux-gnu/4.9.2/ -mtune=corei7 -march=x86-64 -g -Og
REM COMMAND_LINE
REM seed 365200527 1578618124 -2133434253 -524447725 701077970 674326798 -984221942 -1986510209 -385165014 -1339937839 2043203706 -1607761409
REM
REM N 2|1.4|13|15|17|20:21(qc=5)
REM Li 1|1.3|8|9|10|10U:20(qc=5)
REM 
CELL 1.54180    3.50442    3.50442   11.32032   90.00000   90.00000   90.00000
LATT -1
SFAC Li N  
Li     1 -0.4242410994881  0.1217070136393 -0.2595585507840 1.0
Li     1  0.4242410994881 -0.1217070136393  0.2404414492160 1.0
Li     1 -0.1217070136393 -0.4242410994881 -0.5095585507840 1.0
Li     1  0.1217070136393  0.4242410994881 -0.0095585507840 1.0
N      2 -0.0066868478461  0.2149905003090  0.1714087326420 1.0
N      2  0.0066868478461 -0.2149905003090 -0.3285912673580 1.0
N      2 -0.2149905003090 -0.0066868478461 -0.0785912673580 1.0
N      2  0.2149905003090  0.0066868478461  0.4214087326420 1.0
N      2  0.7543932375564  0.4460417218677  0.1971284181420 1.0
N      2 -0.7543932375564 -0.4460417218677 -0.3028715818580 1.0
N      2 -0.4460417218677  0.7543932375564 -0.0528715818580 1.0
N      2  0.4460417218677 -0.7543932375564  0.4471284181420 1.0
END
