TITL LiN2-230326-170041-1e8154 -0.0044 61.772182 -1.48210119E+003 0 0  6 (I41) n - 1
REM
REM Run started: Sun, 26 Mar 2023 17:01:41 +0100 in /scratch/scratch/uccabz1/launch_tmp_michael/launcher_2023-03-26-16-00-41-081303
REM CASTEP 21.1 from code version cdfb9687+ bz-changes Mon Jan 4 11:18:28 2021 +0000
REM Functional Perdew Burke Ernzerhof Relativity Koelling-Harmon Dispersion off
REM Cut-off 340.0000 eV Grid scale 1.7500 Gmax 16.5316 1/A FBSC none
REM MP grid 4 5 5 Offset 0.000 0.000 0.000 No. kpts 50 Spacing 0.07
REM Total runtime: 69.62 s
REM Overall efficiency: 53.6 %
REM
REM LiN2.cell (b953e92e767f3f2c67521e63ea917690)
REM ## AIRSS Version 0.9.3 July 2022 commit v0.9.3-8-ga1e635fa32177e30cc
REM compiler GCC version 4.9.2
REM options -cpp -iprefix /scratch/UCL/applications/gcc/4.9.2/bin/../lib/gcc/x86_64-unknown-linux-gnu/4.9.2/ -mtune=corei7 -march=x86-64 -g -Og
REM COMMAND_LINE
REM seed 1274954860 1722146420 1342143257 -790937616 -1050009517 1551297679 1906310409 358676743 -858499027 -59599032 -1201133160 1616722777
REM
REM N 2|1.4|13|15|17|20:21(qc=5)
REM Li 1|1.3|8|9|10|10U:20(qc=5)
REM 
CELL 1.54180    4.63065    4.63065    4.63065  138.25627   97.29251   97.29251
LATT -1
SFAC Li N  
Li     1 -0.5000000000000  0.1793120310759 -0.3206879689241 1.0
Li     1  0.0000000000000  0.4293120310759  0.4293120310759 1.0
N      2  0.1590093604841 -0.3800935462606  0.0165579756688 1.0
N      2 -0.1590093604841 -0.1424513848153  0.4608970932553 1.0
N      2 -0.1033484780707 -0.2334420243312  0.1075486151847 1.0
N      2  0.1033484780707  0.2108970932553 -0.1300935462606 1.0
END
