TITL LiN2-230326-161527-31af91 -0.0209 236.190586 -2.96983613E+003 0 0  12 (Pm) n - 1
REM
REM Run started: Sun, 26 Mar 2023 16:27:17 +0100 in /scratch/scratch/uccabz1/launch_tmp_michael/launcher_2023-03-26-15-15-26-941804
REM CASTEP 21.1 from code version cdfb9687+ bz-changes Mon Jan 4 11:18:28 2021 +0000
REM Functional Perdew Burke Ernzerhof Relativity Koelling-Harmon Dispersion off
REM Cut-off 340.0000 eV Grid scale 1.7500 Gmax 16.5316 1/A FBSC none
REM MP grid 5 3 2 Offset 0.000 0.000 0.000 No. kpts 8 Spacing 0.07
REM Total runtime: 818.21 s
REM Overall efficiency: 66.1667 %
REM
REM LiN2.cell (b953e92e767f3f2c67521e63ea917690)
REM ## AIRSS Version 0.9.3 July 2022 commit v0.9.3-8-ga1e635fa32177e30cc
REM compiler GCC version 4.9.2
REM options -cpp -iprefix /scratch/UCL/applications/gcc/4.9.2/bin/../lib/gcc/x86_64-unknown-linux-gnu/4.9.2/ -mtune=corei7 -march=x86-64 -g -Og
REM COMMAND_LINE
REM seed -234582893 1251274966 -148018240 768956850 -1306934698 1069076128 334089437 2041242909 773853198 -1290777688 -908065579 2002809885
REM
REM N 2|1.4|13|15|17|20:21(qc=5)
REM Li 1|1.3|8|9|10|10U:20(qc=5)
REM 
CELL 1.54180    3.84575    5.16878   12.85718   90.00000   90.00000   67.54228
LATT -1
SFAC Li N  
Li     1  0.1193425536076  0.1111356013234  0.2514749588705 1.0
Li     1  0.1193425536076  0.1111356013234 -0.2514749588705 1.0
Li     1 -0.2185829845276 -0.1998563979094  0.2813380439563 1.0
Li     1 -0.2185829845276 -0.1998563979094 -0.2813380439563 1.0
N      2 -0.4388345162685  0.4534202744020 -0.2684157703319 1.0
N      2 -0.4388345162685  0.4534202744020  0.2684157703319 1.0
N      2 -0.4316529750264  0.2090663422620  0.2673570376800 1.0
N      2 -0.4316529750264  0.2090663422620 -0.2673570376800 1.0
N      2  0.0889926734558  0.1408406762663 -0.0441207746255 1.0
N      2  0.0889926734558  0.1408406762663  0.0441207746255 1.0
N      2  0.3322856487590 -0.2967673963443 -0.2709827463443 1.0
N      2  0.3322856487590 -0.2967673963443  0.2709827463443 1.0
END
