TITL LiN2-230326-181510-5f6f9a 0.0320 230.435509 -4.45512375E+003 0 0  18 (P42) n - 1
REM
REM Run started: Sun, 26 Mar 2023 18:19:25 +0100 in /scratch/scratch/uccabz1/launch_tmp_michael/launcher_2023-03-26-17-15-09-946724
REM CASTEP 21.1 from code version cdfb9687+ bz-changes Mon Jan 4 11:18:28 2021 +0000
REM Functional Perdew Burke Ernzerhof Relativity Koelling-Harmon Dispersion off
REM Cut-off 340.0000 eV Grid scale 1.7500 Gmax 16.5316 1/A FBSC none
REM MP grid 4 4 2 Offset 0.000 0.000 0.000 No. kpts 4 Spacing 0.07
REM Total runtime: 304.45 s
REM Overall efficiency: 54.7143 %
REM
REM LiN2.cell (b953e92e767f3f2c67521e63ea917690)
REM ## AIRSS Version 0.9.3 July 2022 commit v0.9.3-8-ga1e635fa32177e30cc
REM compiler GCC version 4.9.2
REM options -cpp -iprefix /scratch/UCL/applications/gcc/4.9.2/bin/../lib/gcc/x86_64-unknown-linux-gnu/4.9.2/ -mtune=corei7 -march=x86-64 -g -Og
REM COMMAND_LINE
REM seed -1140250656 396017697 650780427 840419909 -696538315 537888138 1985718549 1076409622 1518878644 1184395966 472279998 -611673843
REM
REM N 2|1.4|13|15|17|20:21(qc=5)
REM Li 1|1.3|8|9|10|10U:20(qc=5)
REM 
CELL 1.54180    4.06359    4.06359   13.95499   90.00000   90.00000   90.00000
LATT -1
SFAC Li N  
Li     1  0.2615187320168  0.2412348515013 -0.1311331075828 1.0
Li     1 -0.2615187320168 -0.2412348515013 -0.1311331075828 1.0
Li     1  0.2412348515013 -0.2615187320168  0.3688668924172 1.0
Li     1 -0.2412348515013  0.2615187320168  0.3688668924172 1.0
Li     1  0.0000000000000  0.5000000000000  0.0973288847479 1.0
Li     1  0.5000000000000  0.0000000000000 -0.4026711152521 1.0
N      2 -0.1161183416039 -0.0850038215289 -0.2831573639921 1.0
N      2  0.1161183416039  0.0850038215289 -0.2831573639921 1.0
N      2 -0.0850038215289  0.1161183416039  0.2168426360079 1.0
N      2  0.0850038215289 -0.1161183416039  0.2168426360079 1.0
N      2 -0.2753272934798 -0.2323898045846 -0.5079724380544 1.0
N      2  0.2753272934798  0.2323898045846 -0.5079724380544 1.0
N      2 -0.2323898045846  0.2753272934798 -0.0079724380544 1.0
N      2  0.2323898045846 -0.2753272934798 -0.0079724380544 1.0
N      2 -0.2423439974589  0.2543953237473 -0.0943965827448 1.0
N      2  0.2423439974589 -0.2543953237473 -0.0943965827448 1.0
N      2  0.2543953237473  0.2423439974589  0.4056034172552 1.0
N      2 -0.2543953237473 -0.2423439974589  0.4056034172552 1.0
END
