TITL LiN2-230326-160630-f59a3f -0.0081 221.484569 -4.44579830E+003 0 0  18 (P4) n - 1
REM
REM Run started: Sun, 26 Mar 2023 16:10:44 +0100 in /scratch/scratch/uccabz1/launch_tmp_michael/launcher_2023-03-26-15-06-30-164482
REM CASTEP 21.1 from code version cdfb9687+ bz-changes Mon Jan 4 11:18:28 2021 +0000
REM Functional Perdew Burke Ernzerhof Relativity Koelling-Harmon Dispersion off
REM Cut-off 340.0000 eV Grid scale 1.7500 Gmax 16.5316 1/A FBSC none
REM MP grid 6 2 2 Offset 0.000 0.000 0.000 No. kpts 3 Spacing 0.07
REM Total runtime: 257.23 s
REM Overall efficiency: 51.25 %
REM
REM LiN2.cell (b953e92e767f3f2c67521e63ea917690)
REM ## AIRSS Version 0.9.3 July 2022 commit v0.9.3-8-ga1e635fa32177e30cc
REM compiler GCC version 4.9.2
REM options -cpp -iprefix /scratch/UCL/applications/gcc/4.9.2/bin/../lib/gcc/x86_64-unknown-linux-gnu/4.9.2/ -mtune=corei7 -march=x86-64 -g -Og
REM COMMAND_LINE
REM seed 1656851353 116029490 -1700363082 -548777539 -544487264 -1174846712 -163609814 -496173827 -1937699334 1028409887 -556660921 1356741921
REM
REM N 2|1.4|13|15|17|20:21(qc=5)
REM Li 1|1.3|8|9|10|10U:20(qc=5)
REM 
CELL 1.54180    2.66830    9.11075    9.11075   90.00000   90.00000   90.00000
LATT -1
SFAC Li N  
Li     1 -0.1638242282338 -0.1362741390046  0.1554549062662 1.0
Li     1 -0.1638242282338  0.1362741390046 -0.1554549062662 1.0
Li     1 -0.1638242282338  0.1554549062662  0.1362741390046 1.0
Li     1 -0.1638242282338 -0.1554549062662 -0.1362741390046 1.0
Li     1 -0.1876026087878  0.5000000000000  0.0000000000000 1.0
Li     1 -0.1876026087878  0.0000000000000 -0.5000000000000 1.0
N      2  0.3365613670601 -0.2564782333820  0.0196290536819 1.0
N      2  0.3365613670601  0.2564782333820 -0.0196290536819 1.0
N      2  0.3365613670601  0.0196290536819  0.2564782333820 1.0
N      2  0.3365613670601 -0.0196290536819 -0.2564782333820 1.0
N      2 -0.1693996184141  0.2046071016350 -0.4212381766497 1.0
N      2 -0.1693996184141 -0.2046071016350  0.4212381766497 1.0
N      2 -0.1693996184141 -0.4212381766497 -0.2046071016350 1.0
N      2 -0.1693996184141  0.4212381766497  0.2046071016350 1.0
N      2 -0.1679958660184 -0.3633707156185 -0.3149871046656 1.0
N      2 -0.1679958660184  0.3633707156185  0.3149871046656 1.0
N      2 -0.1679958660184 -0.3149871046656  0.3633707156185 1.0
N      2 -0.1679958660184  0.3149871046656 -0.3633707156185 1.0
END
