TITL LiN2-230326-144952-ca6d0c 0.0032 192.716496 -4.45292319E+003 0 0  18 (C2) n - 1
REM
REM Run started: Sun, 26 Mar 2023 15:11:55 +0100 in /scratch/scratch/uccabz1/launch_tmp_michael/launcher_2023-03-26-13-49-51-069503
REM CASTEP 21.1 from code version cdfb9687+ bz-changes Mon Jan 4 11:18:28 2021 +0000
REM Functional Perdew Burke Ernzerhof Relativity Koelling-Harmon Dispersion off
REM Cut-off 340.0000 eV Grid scale 1.7500 Gmax 16.5316 1/A FBSC none
REM MP grid 3 4 3 Offset 0.000 0.000 0.000 No. kpts 12 Spacing 0.07
REM Total runtime: 1469.01 s
REM Overall efficiency: 68.25 %
REM
REM LiN2.cell (b953e92e767f3f2c67521e63ea917690)
REM ## AIRSS Version 0.9.3 July 2022 commit v0.9.3-8-ga1e635fa32177e30cc
REM compiler GCC version 4.9.2
REM options -cpp -iprefix /scratch/UCL/applications/gcc/4.9.2/bin/../lib/gcc/x86_64-unknown-linux-gnu/4.9.2/ -mtune=corei7 -march=x86-64 -g -Og
REM COMMAND_LINE
REM seed -1186565292 -1195200001 -2077171433 -128433220 -1934830088 286576771 710632922 488075487 894509001 -474716463 -1402004805 1814550689
REM
REM N 2|1.4|13|15|17|20:21(qc=5)
REM Li 1|1.3|8|9|10|10U:20(qc=5)
REM 
CELL 1.54180    6.24321    4.76231    7.65797   81.20060   65.94405   67.95829
LATT -1
SFAC Li N  
Li     1 -0.1413791745633  0.2304421066500  0.6718085924589 1.0
Li     1 -0.5304294178956 -0.2304421066500  0.6718085924589 1.0
Li     1  0.6924958059102 -0.1948111132888  0.2291452548389 1.0
Li     1  0.0783589392509  0.1948111132888  0.2291452548389 1.0
Li     1 -0.1634731662559  0.2805549445174  0.0076604636641 1.0
Li     1  0.1558127025918 -0.2805549445174  0.0076604636641 1.0
N      2  0.4509830974960  0.1707477054988 -0.4381383750679 1.0
N      2 -0.0128447224281 -0.1707477054988 -0.4381383750679 1.0
N      2 -0.1929568479333  0.6966536093117 -0.1273649258195 1.0
N      2  0.3203217737527 -0.6966536093117 -0.1273649258195 1.0
N      2 -0.3138118754907  0.3921348942619  0.2931805568350 1.0
N      2  0.0206313186557 -0.3921348942619  0.2931805568350 1.0
N      2  0.0493214493609 -0.2147565450097 -0.6172576291900 1.0
N      2  0.5679361798291  0.2147565450097 -0.6172576291900 1.0
N      2 -0.1746548360116 -0.0836032781975 -0.0644650490102 1.0
N      2  0.2391198850217  0.0836032781975 -0.0644650490102 1.0
N      2 -0.1417276132662 -0.3564437913759 -0.3086517887093 1.0
N      2 -0.5496205980245  0.3564437913759 -0.3086517887093 1.0
END
