TITL LiN2-230326-154002-d6c7b4 -0.0419 125.254602 -2.96526058E+003 0 0  12 (Pc) n - 1
REM
REM Run started: Sun, 26 Mar 2023 15:46:36 +0100 in /scratch/scratch/uccabz1/launch_tmp_michael/launcher_2023-03-26-14-40-01-941129
REM CASTEP 21.1 from code version cdfb9687+ bz-changes Mon Jan 4 11:18:28 2021 +0000
REM Functional Perdew Burke Ernzerhof Relativity Koelling-Harmon Dispersion off
REM Cut-off 340.0000 eV Grid scale 1.7500 Gmax 16.5316 1/A FBSC none
REM MP grid 5 4 2 Offset 0.000 0.000 0.000 No. kpts 12 Spacing 0.07
REM Total runtime: 407.39 s
REM Overall efficiency: 65.1 %
REM
REM LiN2.cell (b953e92e767f3f2c67521e63ea917690)
REM ## AIRSS Version 0.9.3 July 2022 commit v0.9.3-8-ga1e635fa32177e30cc
REM compiler GCC version 4.9.2
REM options -cpp -iprefix /scratch/UCL/applications/gcc/4.9.2/bin/../lib/gcc/x86_64-unknown-linux-gnu/4.9.2/ -mtune=corei7 -march=x86-64 -g -Og
REM COMMAND_LINE
REM seed -127181449 325861796 249525587 -1108088615 94065385 -1053155070 -168750425 -884259468 149746352 -398675938 -816629792 1104739950
REM
REM N 2|1.4|13|15|17|20:21(qc=5)
REM Li 1|1.3|8|9|10|10U:20(qc=5)
REM 
CELL 1.54180    3.40115    4.68166    9.13021  120.50731   90.00000   90.00000
LATT -1
SFAC Li N  
Li     1 -0.1969163370214 -0.1327380134260 -0.4204968264007 1.0
Li     1  0.1969163370214  0.3672619865740 -0.4204968264007 1.0
Li     1  0.4723656830866  0.2063009581646 -0.0805750828835 1.0
Li     1 -0.4723656830866  0.7063009581646 -0.0805750828835 1.0
N      2  0.7254806462011  0.2645319458764  0.2798265489963 1.0
N      2 -0.7254806462011 -0.2354680541236  0.2798265489963 1.0
N      2 -0.6987928958979 -0.3263128135675  0.1336269635965 1.0
N      2  0.6987928958979  0.1736871864325  0.1336269635965 1.0
N      2  0.2522996037240 -0.1438010984555  0.4288568195740 1.0
N      2 -0.2522996037240 -0.6438010984555  0.4288568195740 1.0
N      2 -0.0112381090684  0.3321475214080 -0.2066486228827 1.0
N      2  0.0112381090684 -0.1678524785920 -0.2066486228827 1.0
END
