TITL LiN2-230326-171609-7ef4b9 0.0608 148.263421 -2.96096300E+003 0 0  12 (R3) n - 1
REM
REM Run started: Sun, 26 Mar 2023 17:32:55 +0100 in /scratch/scratch/uccabz1/launch_tmp_michael/launcher_2023-03-26-16-16-08-852495
REM CASTEP 21.1 from code version cdfb9687+ bz-changes Mon Jan 4 11:18:28 2021 +0000
REM Functional Perdew Burke Ernzerhof Relativity Koelling-Harmon Dispersion off
REM Cut-off 340.0000 eV Grid scale 1.7500 Gmax 16.5316 1/A FBSC none
REM MP grid 4 4 3 Offset 0.000 0.000 0.000 No. kpts 24 Spacing 0.07
REM Total runtime: 1200.67 s
REM Overall efficiency: 72.6667 %
REM
REM LiN2.cell (b953e92e767f3f2c67521e63ea917690)
REM ## AIRSS Version 0.9.3 July 2022 commit v0.9.3-8-ga1e635fa32177e30cc
REM compiler GCC version 4.9.2
REM options -cpp -iprefix /scratch/UCL/applications/gcc/4.9.2/bin/../lib/gcc/x86_64-unknown-linux-gnu/4.9.2/ -mtune=corei7 -march=x86-64 -g -Og
REM COMMAND_LINE
REM seed 1113289267 -1046082751 -739213859 241926997 1612165330 1647484071 475649347 1600581794 1254995615 719334700 649511433 1780837967
REM
REM N 2|1.4|13|15|17|20:21(qc=5)
REM Li 1|1.3|8|9|10|10U:20(qc=5)
REM 
CELL 1.54180    5.42905    5.42905    6.60017   65.71467   65.71467   60.00000
LATT -1
SFAC Li N  
Li     1  0.4195252739749  0.2773844192957  0.4711651063184 1.0
Li     1 -0.1680747995891  0.4195252739749  0.4711651063184 1.0
Li     1  0.2773844192957 -0.1680747995891  0.4711651063184 1.0
Li     1  0.0264436080782  0.0264436080782 -0.0793308242345 1.0
N      2 -0.4350762832232  0.3117377676429 -0.1723672069231 1.0
N      2  0.2957057225034 -0.4350762832232 -0.1723672069231 1.0
N      2  0.3117377676429  0.2957057225034 -0.1723672069231 1.0
N      2 -0.3671493486494 -0.1329961107554  0.4212520252112 1.0
N      2  0.0788934341937 -0.3671493486494  0.4212520252112 1.0
N      2 -0.1329961107554  0.0788934341937  0.4212520252112 1.0
N      2 -0.1951965352378 -0.1951965352378 -0.4144103942865 1.0
N      2 -0.0879071149007 -0.0879071149007  0.2637213447020 1.0
END
