TITL LiN2-230326-145001-33e951 0.0125 64.763495 -1.48468456E+003 0 0  6 (Pma2) n - 1
REM
REM Run started: Sun, 26 Mar 2023 14:50:36 +0100 in /scratch/scratch/uccabz1/launch_tmp_michael/launcher_2023-03-26-13-50-00-976474
REM CASTEP 21.1 from code version cdfb9687+ bz-changes Mon Jan 4 11:18:28 2021 +0000
REM Functional Perdew Burke Ernzerhof Relativity Koelling-Harmon Dispersion off
REM Cut-off 340.0000 eV Grid scale 1.7500 Gmax 16.5316 1/A FBSC none
REM MP grid 5 5 3 Offset 0.000 0.000 0.000 No. kpts 18 Spacing 0.07
REM Total runtime: 38.8 s
REM Overall efficiency: 45 %
REM
REM LiN2.cell (b953e92e767f3f2c67521e63ea917690)
REM ## AIRSS Version 0.9.3 July 2022 commit v0.9.3-8-ga1e635fa32177e30cc
REM compiler GCC version 4.9.2
REM options -cpp -iprefix /scratch/UCL/applications/gcc/4.9.2/bin/../lib/gcc/x86_64-unknown-linux-gnu/4.9.2/ -mtune=corei7 -march=x86-64 -g -Og
REM COMMAND_LINE
REM seed -877875182 2019570398 1195267032 -130608125 1293048033 50185140 346875294 44162433 -412744264 2146576837 100117872 1506093470
REM
REM N 2|1.4|13|15|17|20:21(qc=5)
REM Li 1|1.3|8|9|10|10U:20(qc=5)
REM 
CELL 1.54180    3.24030    2.87837    6.94381   90.00000   90.00000   90.00000
LATT -1
SFAC Li N  
Li     1 -0.4228317454192  0.4119737569114  0.2500000000000 1.0
Li     1  0.4228317454192  0.4119737569114 -0.2500000000000 1.0
N      2 -0.1301150941358 -0.3061935784557 -0.0612880977691 1.0
N      2  0.1301150941358 -0.3061935784557  0.0612880977691 1.0
N      2  0.1301150941358 -0.3061935784557  0.4387119022309 1.0
N      2 -0.1301150941358 -0.3061935784557 -0.4387119022309 1.0
END
