TITL LiN2-230326-191159-bf3518 -0.0059 55.466660 -1.48528167E+003 0 0  6 (P21/m) n - 1
REM
REM Run started: Sun, 26 Mar 2023 19:13:54 +0100 in /scratch/scratch/uccabz1/launch_tmp_michael/launcher_2023-03-26-18-11-59-731759
REM CASTEP 21.1 from code version cdfb9687+ bz-changes Mon Jan 4 11:18:28 2021 +0000
REM Functional Perdew Burke Ernzerhof Relativity Koelling-Harmon Dispersion off
REM Cut-off 340.0000 eV Grid scale 1.7500 Gmax 16.5316 1/A FBSC none
REM MP grid 5 4 5 Offset 0.000 0.000 0.000 No. kpts 26 Spacing 0.07
REM Total runtime: 148.08 s
REM Overall efficiency: 64.4286 %
REM
REM LiN2.cell (b953e92e767f3f2c67521e63ea917690)
REM ## AIRSS Version 0.9.3 July 2022 commit v0.9.3-8-ga1e635fa32177e30cc
REM compiler GCC version 4.9.2
REM options -cpp -iprefix /scratch/UCL/applications/gcc/4.9.2/bin/../lib/gcc/x86_64-unknown-linux-gnu/4.9.2/ -mtune=corei7 -march=x86-64 -g -Og
REM COMMAND_LINE
REM seed 1678130981 -1452481831 -1185478608 -1748128693 -1407926487 -1479246995 86260142 -1190632740 1419023965 665214845 1216761074 951314572
REM
REM N 2|1.4|13|15|17|20:21(qc=5)
REM Li 1|1.3|8|9|10|10U:20(qc=5)
REM 
CELL 1.54180    4.31752    3.89941    4.39645   90.00000  131.46418   90.00000
LATT -1
SFAC Li N  
Li     1  0.2790048460561  0.2500000000000 -0.2811894330488 1.0
Li     1 -0.2790048460561 -0.2500000000000  0.2811894330488 1.0
N      2 -0.0747094598983  0.0739341606939  0.0803742369617 1.0
N      2  0.0747094598983 -0.4260658393061 -0.0803742369617 1.0
N      2  0.0747094598983 -0.0739341606939 -0.0803742369617 1.0
N      2 -0.0747094598983  0.4260658393061  0.0803742369617 1.0
END
