TITL LiN2-230326-200639-171f16 0.0417 62.060196 -1.47858248E+003 0 0  6 (P3) n - 1
REM
REM Run started: Sun, 26 Mar 2023 20:08:50 +0100 in /scratch/scratch/uccabz1/launch_tmp_michael/launcher_2023-03-26-19-06-39-387243
REM CASTEP 21.1 from code version cdfb9687+ bz-changes Mon Jan 4 11:18:28 2021 +0000
REM Functional Perdew Burke Ernzerhof Relativity Koelling-Harmon Dispersion off
REM Cut-off 340.0000 eV Grid scale 1.7500 Gmax 16.5316 1/A FBSC none
REM MP grid 4 4 4 Offset 0.000 0.000 0.000 No. kpts 32 Spacing 0.07
REM Total runtime: 133.5 s
REM Overall efficiency: 72.6667 %
REM
REM LiN2.cell (b953e92e767f3f2c67521e63ea917690)
REM ## AIRSS Version 0.9.3 July 2022 commit v0.9.3-8-ga1e635fa32177e30cc
REM compiler GCC version 4.9.2
REM options -cpp -iprefix /scratch/UCL/applications/gcc/4.9.2/bin/../lib/gcc/x86_64-unknown-linux-gnu/4.9.2/ -mtune=corei7 -march=x86-64 -g -Og
REM COMMAND_LINE
REM seed 583172678 -753201135 -120144042 512491421 785638556 -1535732219 1308938249 362271643 1605532408 -1935693257 926164977 1955619969
REM
REM N 2|1.4|13|15|17|20:21(qc=5)
REM Li 1|1.3|8|9|10|10U:20(qc=5)
REM 
CELL 1.54180    3.92147    4.27481    4.27481  120.00000   90.00000   90.00000
LATT -1
SFAC Li N  
Li     1 -0.3155097567133 -0.0000000000000 -0.0000000000000 1.0
Li     1  0.1856423117488 -0.3333333333333  0.3333333333333 1.0
N      2  0.2281803228646  0.1644924017590 -0.3004834360766 1.0
N      2  0.2281803228646  0.3004834360766  0.4649758378356 1.0
N      2  0.2281803228646 -0.4649758378356 -0.1644924017590 1.0
N      2 -0.3105516236292 -0.3333333333333  0.3333333333333 1.0
END
