TITL LiN2-230326-193242-089881 0.0112 184.527057 -2.97011744E+003 0 0  12 (P-1) n - 1
REM
REM Run started: Sun, 26 Mar 2023 19:44:51 +0100 in /scratch/scratch/uccabz1/launch_tmp_michael/launcher_2023-03-26-18-32-41-929523
REM CASTEP 21.1 from code version cdfb9687+ bz-changes Mon Jan 4 11:18:28 2021 +0000
REM Functional Perdew Burke Ernzerhof Relativity Koelling-Harmon Dispersion off
REM Cut-off 340.0000 eV Grid scale 1.7500 Gmax 16.5316 1/A FBSC none
REM MP grid 4 3 2 Offset 0.000 0.000 0.000 No. kpts 12 Spacing 0.07
REM Total runtime: 772.57 s
REM Overall efficiency: 67.9091 %
REM
REM LiN2.cell (b953e92e767f3f2c67521e63ea917690)
REM ## AIRSS Version 0.9.3 July 2022 commit v0.9.3-8-ga1e635fa32177e30cc
REM compiler GCC version 4.9.2
REM options -cpp -iprefix /scratch/UCL/applications/gcc/4.9.2/bin/../lib/gcc/x86_64-unknown-linux-gnu/4.9.2/ -mtune=corei7 -march=x86-64 -g -Og
REM COMMAND_LINE
REM seed -1316338321 -1411615815 -1887515924 314587387 -1443462360 -1156499987 -821654564 1838684736 1029374741 -680441737 632200527 -430364069
REM
REM N 2|1.4|13|15|17|20:21(qc=5)
REM Li 1|1.3|8|9|10|10U:20(qc=5)
REM 
CELL 1.54180    3.77601    5.94298    8.68495  102.04442   89.93596   75.83088
LATT -1
SFAC Li N  
Li     1 -0.0241836814370  0.3583250962163 -0.1531136394457 1.0
Li     1  0.0241836814370 -0.3583250962163  0.1531136394457 1.0
Li     1 -0.3685012230700 -0.3074697829908  0.5332969846292 1.0
Li     1  0.3685012230700  0.3074697829908 -0.5332969846292 1.0
N      2  0.4122659003876  0.4435853729041 -0.0416084569011 1.0
N      2 -0.4122659003876 -0.4435853729041  0.0416084569011 1.0
N      2  0.0121141411282  0.0670364314295 -0.0371868758729 1.0
N      2 -0.0121141411282 -0.0670364314295  0.0371868758729 1.0
N      2 -0.1976867489997  0.3578304046546  0.3813339864435 1.0
N      2  0.1976867489997 -0.3578304046546 -0.3813339864435 1.0
N      2  0.0319161934705 -0.4735295249858 -0.3233628076725 1.0
N      2 -0.0319161934705  0.4735295249858  0.3233628076725 1.0
END
