TITL LiN2-230326-145918-6d0ebe 0.0116 69.838067 -1.48579830E+003 0 0  6 (Cmmm) n - 1
REM
REM Run started: Sun, 26 Mar 2023 15:01:07 +0100 in /scratch/scratch/uccabz1/launch_tmp_michael/launcher_2023-03-26-13-59-18-336972
REM CASTEP 21.1 from code version cdfb9687+ bz-changes Mon Jan 4 11:18:28 2021 +0000
REM Functional Perdew Burke Ernzerhof Relativity Koelling-Harmon Dispersion off
REM Cut-off 340.0000 eV Grid scale 1.7500 Gmax 16.5316 1/A FBSC none
REM MP grid 6 4 3 Offset 0.000 0.000 0.000 No. kpts 36 Spacing 0.07
REM Total runtime: 126.8 s
REM Overall efficiency: 75.5 %
REM
REM LiN2.cell (b953e92e767f3f2c67521e63ea917690)
REM ## AIRSS Version 0.9.3 July 2022 commit v0.9.3-8-ga1e635fa32177e30cc
REM compiler GCC version 4.9.2
REM options -cpp -iprefix /scratch/UCL/applications/gcc/4.9.2/bin/../lib/gcc/x86_64-unknown-linux-gnu/4.9.2/ -mtune=corei7 -march=x86-64 -g -Og
REM COMMAND_LINE
REM seed 2125284155 1892826163 172575420 1765049792 1684143962 -372045969 -1244119792 1313468823 -1691231330 -348775619 551285543 -557839541
REM
REM N 2|1.4|13|15|17|20:21(qc=5)
REM Li 1|1.3|8|9|10|10U:20(qc=5)
REM 
CELL 1.54180    2.79443    4.19649    6.11713   90.00419   76.79654   90.01835
LATT -1
SFAC Li N  
Li     1 -0.2270750472140  0.3522876374961  0.2709285111436 1.0
Li     1  0.0438534639296  0.3522876374961 -0.2709285111436 1.0
N      2  0.2758467650395 -0.2892567889437  0.2754636137789 1.0
N      2  0.5513103788184 -0.2892567889437 -0.2754636137789 1.0
N      2 -0.4489499449600 -0.0075277485523 -0.2753538706535 1.0
N      2  0.2756961843865 -0.0075277485523  0.2753538706535 1.0
END
