TITL LiN2-230326-190416-6aa4b7 -0.0156 70.277180 -1.48590302E+003 0 0  6 (P2/m) n - 1
REM
REM Run started: Sun, 26 Mar 2023 19:06:37 +0100 in /scratch/scratch/uccabz1/launch_tmp_michael/launcher_2023-03-26-18-04-16-221880
REM CASTEP 21.1 from code version cdfb9687+ bz-changes Mon Jan 4 11:18:28 2021 +0000
REM Functional Perdew Burke Ernzerhof Relativity Koelling-Harmon Dispersion off
REM Cut-off 340.0000 eV Grid scale 1.7500 Gmax 16.5316 1/A FBSC none
REM MP grid 6 4 3 Offset 0.000 0.000 0.000 No. kpts 18 Spacing 0.07
REM Total runtime: 142.77 s
REM Overall efficiency: 66.875 %
REM
REM LiN2.cell (b953e92e767f3f2c67521e63ea917690)
REM ## AIRSS Version 0.9.3 July 2022 commit v0.9.3-8-ga1e635fa32177e30cc
REM compiler GCC version 4.9.2
REM options -cpp -iprefix /scratch/UCL/applications/gcc/4.9.2/bin/../lib/gcc/x86_64-unknown-linux-gnu/4.9.2/ -mtune=corei7 -march=x86-64 -g -Og
REM COMMAND_LINE
REM seed -812617603 1130114177 497340097 -1544720957 946511409 1572264349 1934598409 -888045342 895378645 -1903785609 -1151335710 57368725
REM
REM N 2|1.4|13|15|17|20:21(qc=5)
REM Li 1|1.3|8|9|10|10U:20(qc=5)
REM 
CELL 1.54180    2.81811    4.19484    5.94572   90.00000   90.98522   90.00000
LATT -1
SFAC Li N  
Li     1  0.2574452760330 -0.0729287970375 -0.2659537736460 1.0
Li     1 -0.2574452760330 -0.0729287970375  0.2659537736460 1.0
N      2 -0.2422538699278  0.2815699527906 -0.2640915394526 1.0
N      2  0.2422538699278  0.2815699527906  0.2640915394526 1.0
N      2  0.2422773324822 -0.4365776557531  0.2640325842750 1.0
N      2 -0.2422773324822 -0.4365776557531 -0.2640325842750 1.0
END
