TITL LiN2-230326-165013-92a689 -0.0086 76.826719 -1.48567324E+003 0 0  6 (P2/m) n - 1
REM
REM Run started: Sun, 26 Mar 2023 16:52:24 +0100 in /scratch/scratch/uccabz1/launch_tmp_michael/launcher_2023-03-26-15-50-13-262229
REM CASTEP 21.1 from code version cdfb9687+ bz-changes Mon Jan 4 11:18:28 2021 +0000
REM Functional Perdew Burke Ernzerhof Relativity Koelling-Harmon Dispersion off
REM Cut-off 340.0000 eV Grid scale 1.7500 Gmax 16.5316 1/A FBSC none
REM MP grid 6 4 3 Offset 0.000 0.000 0.000 No. kpts 18 Spacing 0.07
REM Total runtime: 136.36 s
REM Overall efficiency: 68 %
REM
REM LiN2.cell (b953e92e767f3f2c67521e63ea917690)
REM ## AIRSS Version 0.9.3 July 2022 commit v0.9.3-8-ga1e635fa32177e30cc
REM compiler GCC version 4.9.2
REM options -cpp -iprefix /scratch/UCL/applications/gcc/4.9.2/bin/../lib/gcc/x86_64-unknown-linux-gnu/4.9.2/ -mtune=corei7 -march=x86-64 -g -Og
REM COMMAND_LINE
REM seed -566635435 -2065132304 -970516684 1879532050 901267586 -1913085127 -1551621377 -355722448 1558183558 1261983842 279752995 -2010965534
REM
REM N 2|1.4|13|15|17|20:21(qc=5)
REM Li 1|1.3|8|9|10|10U:20(qc=5)
REM 
CELL 1.54180    2.72264    4.25046    6.71196   98.47042   90.00000   90.00000
LATT -1
SFAC Li N  
Li     1 -0.2085527728896  0.1001003841308  0.2625330589937 1.0
Li     1 -0.2085527728896 -0.1001003841308 -0.2625330589937 1.0
N      2  0.2942367414854  0.5475786482816 -0.2521188053017 1.0
N      2  0.2942367414854 -0.5475786482816  0.2521188053017 1.0
N      2  0.2943124314042 -0.2679772617785  0.2569584322432 1.0
N      2  0.2943124314042  0.2679772617785 -0.2569584322432 1.0
END
