TITL LiN2-230326-202036-a78b0f 0.0057 59.917415 -1.48172850E+003 0 0  6 (R3) n - 1
REM
REM Run started: Sun, 26 Mar 2023 20:21:46 +0100 in /scratch/scratch/uccabz1/launch_tmp_michael/launcher_2023-03-26-19-20-36-139157
REM CASTEP 21.1 from code version cdfb9687+ bz-changes Mon Jan 4 11:18:28 2021 +0000
REM Functional Perdew Burke Ernzerhof Relativity Koelling-Harmon Dispersion off
REM Cut-off 340.0000 eV Grid scale 1.7500 Gmax 16.5316 1/A FBSC none
REM MP grid 4 4 4 Offset 0.000 0.000 0.000 No. kpts 12 Spacing 0.07
REM Total runtime: 86.12 s
REM Overall efficiency: 49 %
REM
REM LiN2.cell (b953e92e767f3f2c67521e63ea917690)
REM ## AIRSS Version 0.9.3 July 2022 commit v0.9.3-8-ga1e635fa32177e30cc
REM compiler GCC version 4.9.2
REM options -cpp -iprefix /scratch/UCL/applications/gcc/4.9.2/bin/../lib/gcc/x86_64-unknown-linux-gnu/4.9.2/ -mtune=corei7 -march=x86-64 -g -Og
REM COMMAND_LINE
REM seed 1988179806 -294413034 -1931740041 1953748688 471308048 -680751792 1209272067 141987684 -1840200808 -1678456218 1822466608 -219170576
REM
REM N 2|1.4|13|15|17|20:21(qc=5)
REM Li 1|1.3|8|9|10|10U:20(qc=5)
REM 
CELL 1.54180    4.09154    4.09154    4.09154   71.65693   71.65693   71.65693
LATT -1
SFAC Li N  
Li     1  0.2758892608260  0.2758892608260  0.2758892608260 1.0
Li     1 -0.0338538408670 -0.0338538408670 -0.0338538408670 1.0
N      2 -0.2239758011900 -0.5081576226877  0.2351383707756 1.0
N      2 -0.5081576226877  0.2351383707756 -0.2239758011900 1.0
N      2  0.2351383707756 -0.2239758011900 -0.5081576226877 1.0
N      2  0.5067900331432  0.5067900331432  0.5067900331432 1.0
END
