TITL LiN2-230326-175237-7ec429 0.0392 139.003590 -2.96499661E+003 0 0  12 (R32) n - 1
REM
REM Run started: Sun, 26 Mar 2023 18:07:50 +0100 in /scratch/scratch/uccabz1/launch_tmp_michael/launcher_2023-03-26-16-52-37-337523
REM CASTEP 21.1 from code version cdfb9687+ bz-changes Mon Jan 4 11:18:28 2021 +0000
REM Functional Perdew Burke Ernzerhof Relativity Koelling-Harmon Dispersion off
REM Cut-off 340.0000 eV Grid scale 1.7500 Gmax 16.5316 1/A FBSC none
REM MP grid 3 3 5 Offset 0.000 0.000 0.000 No. kpts 18 Spacing 0.07
REM Total runtime: 915.74 s
REM Overall efficiency: 78.2222 %
REM
REM LiN2.cell (b953e92e767f3f2c67521e63ea917690)
REM ## AIRSS Version 0.9.3 July 2022 commit v0.9.3-8-ga1e635fa32177e30cc
REM compiler GCC version 4.9.2
REM options -cpp -iprefix /scratch/UCL/applications/gcc/4.9.2/bin/../lib/gcc/x86_64-unknown-linux-gnu/4.9.2/ -mtune=corei7 -march=x86-64 -g -Og
REM COMMAND_LINE
REM seed -819117695 505700546 -747826629 1832740697 1513411306 1266282636 746827592 1739782729 -185497628 819276925 2013483207 -560066900
REM
REM N 2|1.4|13|15|17|20:21(qc=5)
REM Li 1|1.3|8|9|10|10U:20(qc=5)
REM 
CELL 1.54180    7.05794    7.05794    5.19488   47.20976   47.20976   60.00000
LATT -1
SFAC Li N  
Li     1  0.2846877124951 -0.0036039103070  0.0751175825587 1.0
Li     1 -0.3562013847469  0.2846877124951  0.0751175825587 1.0
Li     1 -0.0036039103070 -0.3562013847469  0.0751175825587 1.0
Li     1 -0.3600638190218 -0.3600638190218  0.0801914570653 1.0
N      2  0.3608858237506 -0.4083488449653  0.6117825377564 1.0
N      2  0.4356804834583  0.3608858237506  0.6117825377564 1.0
N      2 -0.4083488449653  0.4356804834583  0.6117825377564 1.0
N      2  0.6880371847624 -0.0814304082174 -0.4516745727489 1.0
N      2 -0.1549322037960  0.6880371847624 -0.4516745727489 1.0
N      2 -0.0814304082174 -0.1549322037960 -0.4516745727489 1.0
N      2  0.2003041828241  0.2003041828241  0.3990874515276 1.0
N      2  0.0807949837638  0.0807949837638 -0.2423849512915 1.0
END
