TITL 2LiFeSO4F-200804-044354-582060 0.0606 206.425085 -7.56555295E+003 7.99878 8.12441 16 (P21) n - 1
REM
REM Run started: Tue, 04 Aug 2020 05:43:10 +0100 in /lustre/scratch/uccabz1/launch_tmp/launcher_2020-08-04-03-43-52-419609
REM CASTEP 20.1 from code version af48c487+ pr-geom-scf-spinfix Tue Jun 2 15:39:59 2020 +0100
REM Functional Perdew Burke Ernzerhof Relativity Koelling-Harmon Dispersion off
REM Cut-off 340.0000 eV Grid scale 1.7500 Gmax 16.5316 1/A FBSC none
REM MP grid 4 3 3 Offset 0.000 0.000 0.000 No. kpts 12 Spacing 0.07
REM Total runtime: 3602.35 s
REM Overall efficiency: 72.2857 %
REM
REM 2LiFeSO4F.cell (6abdf011d38848201efe8211ff585b1c)
REM
REM compiler GCC version 4.9.2
REM options -cpp -iprefix /lustre/shared/ucl/apps/gcc/4.9.2/bin/../lib/gcc/x86_64-unknown-linux-gnu/4.9.2/ -mtune=corei7 -march=x86-64 -g -Og
REM COMMAND_LINE
REM seed -1037456431 -2085877759 -849877083 -374032193 -836692949 -1701772187 1660771296 915974939 1287271786 837344513 888062020 -179232397
REM
REM S 3|1.8|5|6|7|30:31:32(qc=5)
REM O 2|1.5|12|13|15|20:21(qc=5)
REM Li 1|1.3|8|9|10|10U:20(qc=5)
REM Fe 3|2.2|2.0|1.0|8|9|10|40:41:32(qc=5)
REM F 2|1.6|10|12|13|20:21(qc=5)
REM 
CELL 1.54180    5.52000    6.32412    7.00772   90.00000   90.00000  122.45497
LATT -1
SFAC Li O  F  S  Fe 
Li     1  0.4314050000000 -0.3022010000000  0.3117620000000 1.0  -0.03
Li     1 -0.4314050000000  0.3022010000000 -0.1882380000000 1.0  -0.03
O      2 -0.3212420000000  0.3667060000000  0.5328910000000 1.0   0.05
O      2 -0.6544780000000 -0.0356690000000  0.3728890000000 1.0   0.04
O      2 -0.2510740000000  0.3134130000000  0.1959330000000 1.0   0.05
O      2 -0.6619520000000  0.3398680000000  0.2953910000000 1.0   0.04
O      2  0.3212420000000 -0.3667060000000  0.0328910000000 1.0   0.05
O      2  0.6544780000000  0.0356690000000 -0.1271110000000 1.0   0.04
O      2  0.2510740000000 -0.3134130000000 -0.3040670000000 1.0   0.05
O      2  0.6619520000000 -0.3398680000000 -0.2046090000000 1.0   0.04
F      3 -0.2061500000000 -0.1337850000000  0.3973310000000 1.0   0.11
F      3  0.2061500000000  0.1337850000000 -0.1026690000000 1.0   0.11
S      4 -0.4733320000000  0.2441020000000  0.3487640000000 1.0   0.02
S      4  0.4733320000000 -0.2441020000000 -0.1512360000000 1.0   0.02
Fe     5  0.0165420000000  0.2289690000000  0.0705430000000 1.0   3.73
Fe     5 -0.0165420000000 -0.2289690000000 -0.4294570000000 1.0   3.73
END
