TITL 2LiFeSO4F-200818-220633-0831dc 0.0177 247.003298 -7.55703024E+003 9.99974 10.0905 16 (C2) n - 1
REM
REM Run started: Wed, 19 Aug 2020 03:18:37 +0100 in /scratch/scratch/uccabz1/launch_tmp/launcher_2020-08-18-21-06-31-154838
REM CASTEP 19.11| from code version Version unavailable
REM Functional Perdew Burke Ernzerhof Relativity Koelling-Harmon Dispersion off
REM Cut-off 340.0000 eV Grid scale 1.7500 Gmax 16.5316 1/A FBSC none
REM MP grid 3 3 2 Offset 0.000 0.000 0.000 No. kpts 6 Spacing 0.07
REM Total runtime: 19521.3 s
REM Overall efficiency: 81 %
REM
REM 2LiFeSO4F.cell (6abdf011d38848201efe8211ff585b1c)
REM
REM compiler GCC version 4.9.2
REM options -cpp -iprefix /scratch/UCL/applications/gcc/4.9.2/bin/../lib/gcc/x86_64-unknown-linux-gnu/4.9.2/ -mtune=corei7 -march=x86-64 -g -O2
REM COMMAND_LINE
REM seed -857401943 1503425756 1880939701 1663256661 2006902510 1151555972 1229762506 -1407460051 -472610218 1027595721 -1309861540 1770478943
REM
REM S 3|1.8|5|6|7|30:31:32(qc=5)
REM O 2|1.5|12|13|15|20:21(qc=5)
REM Li 1|1.3|8|9|10|10U:20(qc=5)
REM Fe 3|2.2|2.0|1.0|8|9|10|40:41:32(qc=5)
REM F 2|1.6|10|12|13|20:21(qc=5)
REM 
CELL 1.54180    5.15363    5.15363    9.71423   89.90373   89.90373  106.79426
LATT -1
SFAC Li O  F  S  Fe 
Li     1  0.1620010000000 -0.1620010000000  0.0000000000000 1.0  -0.03
Li     1 -0.2024080000000 -0.7975920000000 -0.5000000000000 1.0  -0.07
O      2  0.2291930000000  0.1644840000000 -0.2310580000000 1.0   0.11
O      2 -0.1777980000000 -0.2098520000000 -0.2401190000000 1.0   0.12
O      2 -0.2027560000000  0.2475790000000 -0.2977410000000 1.0   0.09
O      2 -0.1644840000000 -0.2291930000000  0.2310580000000 1.0   0.11
O      2  0.2098520000000  0.1777980000000  0.2401190000000 1.0   0.12
O      2 -0.2475790000000  0.2027560000000  0.2977410000000 1.0   0.09
O      2 -0.1017070000000  0.1017070000000  0.0000000000000 1.0   0.03
O      2  0.0381950000000 -1.0381950000000 -0.5000000000000 1.0   1.52
F      3  0.3661150000000 -0.3661150000000  0.0000000000000 1.0   0.01
F      3 -0.4545910000000 -0.5454090000000 -0.5000000000000 1.0   0.10
S      4 -0.0759970000000  0.0884830000000 -0.1960070000000 1.0   0.04
S      4 -0.0884830000000  0.0759970000000  0.1960070000000 1.0   0.04
Fe     5  0.5319460000000  0.4655700000000  0.2746660000000 1.0   3.85
Fe     5 -0.4655700000000 -0.5319460000000 -0.2746660000000 1.0   3.85
END
