TITL 2LiFeSO4F-200819-011549-9d83a1 0.0456 226.008611 -7.56437525E+003 8.00000 8.19955 16 (C2) n - 1
REM
REM Run started: Wed, 19 Aug 2020 02:36:33 +0100 in /lustre/scratch/uccabz1/launch_tmp/launcher_2020-08-19-00-15-47-276653
REM CASTEP 20.1 from code version af48c487+ pr-geom-scf-spinfix Tue Jun 2 15:39:59 2020 +0100
REM Functional Perdew Burke Ernzerhof Relativity Koelling-Harmon Dispersion off
REM Cut-off 340.0000 eV Grid scale 1.7500 Gmax 16.5316 1/A FBSC none
REM MP grid 4 3 2 Offset 0.000 0.000 0.000 No. kpts 12 Spacing 0.07
REM Total runtime: 5452.54 s
REM Overall efficiency: 73.8571 %
REM
REM 2LiFeSO4F.cell (6abdf011d38848201efe8211ff585b1c)
REM
REM compiler GCC version 4.9.2
REM options -cpp -iprefix /lustre/shared/ucl/apps/gcc/4.9.2/bin/../lib/gcc/x86_64-unknown-linux-gnu/4.9.2/ -mtune=corei7 -march=x86-64 -g -Og
REM COMMAND_LINE
REM seed -1824858242 732966589 -664546516 1615828505 326746174 -547544469 -1897578923 -1214822350 64714032 1769836497 -1226572888 136162458
REM
REM S 3|1.8|5|6|7|30:31:32(qc=5)
REM O 2|1.5|12|13|15|20:21(qc=5)
REM Li 1|1.3|8|9|10|10U:20(qc=5)
REM Fe 3|2.2|2.0|1.0|8|9|10|40:41:32(qc=5)
REM F 2|1.6|10|12|13|20:21(qc=5)
REM 
CELL 1.54180    4.81558    5.67766    9.13370   91.88859   90.00000  115.09253
LATT -1
SFAC Li O  F  S  Fe 
Li     1 -0.0074940000000  0.4338670000000 -0.1496610000000 1.0  -0.02
Li     1 -0.4413610000000 -0.4338670000000  0.1496610000000 1.0  -0.02
O      2  0.0574140000000  0.1039290000000  0.1437540000000 1.0   0.06
O      2 -0.2105530000000  0.3584540000000  0.0523230000000 1.0   0.01
O      2  0.1684250000000  0.5219370000000  0.2566280000000 1.0   0.06
O      2 -0.3517260000000  0.1581360000000  0.2896570000000 1.0   0.05
O      2 -0.0465150000000 -0.1039290000000 -0.1437540000000 1.0   0.06
O      2 -0.5690070000000 -0.3584540000000 -0.0523230000000 1.0   0.01
O      2 -0.3535120000000 -0.5219370000000 -0.2566280000000 1.0   0.06
O      2 -0.5098620000000 -0.1581360000000 -0.2896570000000 1.0   0.05
F      3  0.0590660000000  0.2745070000000 -0.3249070000000 1.0   0.14
F      3 -0.2154400000000 -0.2745070000000  0.3249070000000 1.0   0.14
S      4 -0.0898480000000  0.2822670000000  0.1850530000000 1.0   0.01
S      4 -0.3721150000000 -0.2822670000000 -0.1850530000000 1.0   0.01
Fe     5  0.2052180000000 -0.1032490000000  0.2859350000000 1.0   3.69
Fe     5  0.3084670000000  0.1032490000000 -0.2859350000000 1.0   3.69
END
