TITL 2LiFeSO4F-200804-042327-b6fadc 0.0364 215.123924 -7.56563918E+003 8.00000 8.10937 16 (P21) n - 1
REM
REM Run started: Tue, 04 Aug 2020 05:18:53 +0100 in /lustre/scratch/uccabz1/launch_tmp/launcher_2020-08-04-03-23-25-691285
REM CASTEP 20.1 from code version af48c487+ pr-geom-scf-spinfix Tue Jun 2 15:39:59 2020 +0100
REM Functional Perdew Burke Ernzerhof Relativity Koelling-Harmon Dispersion off
REM Cut-off 340.0000 eV Grid scale 1.7500 Gmax 16.5316 1/A FBSC none
REM MP grid 4 3 2 Offset 0.000 0.000 0.000 No. kpts 6 Spacing 0.07
REM Total runtime: 3415.82 s
REM Overall efficiency: 69.9 %
REM
REM 2LiFeSO4F.cell (6abdf011d38848201efe8211ff585b1c)
REM
REM compiler GCC version 4.9.2
REM options -cpp -iprefix /lustre/shared/ucl/apps/gcc/4.9.2/bin/../lib/gcc/x86_64-unknown-linux-gnu/4.9.2/ -mtune=corei7 -march=x86-64 -g -Og
REM COMMAND_LINE
REM seed -521440006 -1781244666 1328126112 -21815436 -1761896477 2083823788 -171367517 -582412893 1860826489 861324313 266125258 1655664056
REM
REM S 3|1.8|5|6|7|30:31:32(qc=5)
REM O 2|1.5|12|13|15|20:21(qc=5)
REM Li 1|1.3|8|9|10|10U:20(qc=5)
REM Fe 3|2.2|2.0|1.0|8|9|10|40:41:32(qc=5)
REM F 2|1.6|10|12|13|20:21(qc=5)
REM 
CELL 1.54180    4.63761    6.13857    7.55984   90.00000   90.00000   88.32904
LATT -1
SFAC Li O  F  S  Fe 
Li     1  0.5178270000000  0.4343140000000 -0.3364660000000 1.0  -0.03
Li     1 -0.5178270000000 -0.4343140000000  0.1635340000000 1.0  -0.03
O      2  0.1351010000000  0.0702070000000  0.0003330000000 1.0   0.06
O      2  0.1702180000000  0.4647170000000 -0.0029800000000 1.0   0.05
O      2 -0.2140200000000  0.2966790000000  0.1709830000000 1.0   0.06
O      2 -0.2377450000000  0.2956910000000 -0.1547420000000 1.0   0.01
O      2 -0.1351010000000 -0.0702070000000  0.5003330000000 1.0   0.06
O      2 -0.1702180000000 -0.4647170000000  0.4970200000000 1.0   0.05
O      2  0.2140200000000 -0.2966790000000  0.6709830000000 1.0   0.06
O      2  0.2377450000000 -0.2956910000000  0.3452580000000 1.0   0.01
F      3  0.3380150000000  0.2550140000000 -0.4921000000000 1.0   0.11
F      3 -0.3380150000000 -0.2550140000000  0.0079000000000 1.0   0.11
S      4 -0.0419170000000  0.2795890000000 -0.0019160000000 1.0   0.01
S      4  0.0419170000000 -0.2795890000000  0.4980840000000 1.0   0.01
Fe     5  0.0413590000000 -0.2235840000000 -0.0881930000000 1.0   3.72
Fe     5 -0.0413590000000  0.2235840000000  0.4118070000000 1.0   3.72
END
