TITL 2LiFeSO4F-200818-222353-db2940 0.0600 199.263081 -7.56278402E+003 8.00000 8.10446 16 (Pnn2) n - 1
REM
REM Run started: Tue, 18 Aug 2020 22:51:10 +0100 in /lustre/scratch/uccabz1/launch_tmp/launcher_2020-08-18-21-23-52-049476
REM CASTEP 20.1 from code version af48c487+ pr-geom-scf-spinfix Tue Jun 2 15:39:59 2020 +0100
REM Functional Perdew Burke Ernzerhof Relativity Koelling-Harmon Dispersion off
REM Cut-off 340.0000 eV Grid scale 1.7500 Gmax 16.5316 1/A FBSC none
REM MP grid 4 3 2 Offset 0.000 0.000 0.000 No. kpts 4 Spacing 0.07
REM Total runtime: 1920.61 s
REM Overall efficiency: 73.2857 %
REM
REM 2LiFeSO4F.cell (6abdf011d38848201efe8211ff585b1c)
REM
REM compiler GCC version 4.9.2
REM options -cpp -iprefix /lustre/shared/ucl/apps/gcc/4.9.2/bin/../lib/gcc/x86_64-unknown-linux-gnu/4.9.2/ -mtune=corei7 -march=x86-64 -g -Og
REM COMMAND_LINE
REM seed -1704595963 -367257772 -551864603 1018732070 1708987258 -938136771 447672252 -1763352413 -2016790730 1973181441 474377536 119612770
REM
REM S 3|1.8|5|6|7|30:31:32(qc=5)
REM O 2|1.5|12|13|15|20:21(qc=5)
REM Li 1|1.3|8|9|10|10U:20(qc=5)
REM Fe 3|2.2|2.0|1.0|8|9|10|40:41:32(qc=5)
REM F 2|1.6|10|12|13|20:21(qc=5)
REM 
CELL 1.54180    3.79817    6.40106    8.19597   90.00000   90.00000   90.00000
LATT -1
SFAC Li O  F  S  Fe 
Li     1 -0.0000000000000  0.0000000000000 -0.0272230000000 1.0  -0.02
Li     1 -0.5000000000000  0.5000000000000  0.4727770000000 1.0  -0.02
O      2  0.6953900000000 -0.1459030000000  0.1308680000000 1.0   0.02
O      2 -0.2252140000000 -0.3647930000000 -0.1471510000000 1.0   0.05
O      2 -0.6953900000000  0.1459030000000  0.1308680000000 1.0   0.02
O      2  0.2252140000000  0.3647930000000 -0.1471510000000 1.0   0.05
O      2 -0.1953900000000  0.3540970000000  0.6308680000000 1.0   0.02
O      2  0.7252140000000  0.1352070000000  0.3528490000000 1.0   0.05
O      2  0.1953900000000 -0.3540970000000  0.6308680000000 1.0   0.02
O      2 -0.7252140000000 -0.1352070000000  0.3528490000000 1.0   0.05
F      3  0.5000000000000  0.0000000000000 -0.3442720000000 1.0   0.11
F      3 -0.0000000000000  0.5000000000000  0.1557280000000 1.0   0.11
S      4  0.5000000000000  0.0000000000000  0.2438230000000 1.0   0.00
S      4 -0.0000000000000  0.5000000000000 -0.2561770000000 1.0   0.00
Fe     5 -0.0000000000000  0.0000000000000 -0.4397460000000 1.0   3.77
Fe     5 -0.5000000000000  0.5000000000000  0.0602540000000 1.0   3.77
END
