TITL 2LiFeSO4F-200819-004527-db7249 0.0049 275.478777 -7.55841451E+003 7.99805 8.17897 16 (Pma2) n - 1
REM
REM Run started: Wed, 19 Aug 2020 01:11:44 +0100 in /lustre/scratch/uccabz1/launch_tmp/launcher_2020-08-18-23-45-24-236031
REM CASTEP 20.1 from code version af48c487+ pr-geom-scf-spinfix Tue Jun 2 15:39:59 2020 +0100
REM Functional Perdew Burke Ernzerhof Relativity Koelling-Harmon Dispersion off
REM Cut-off 340.0000 eV Grid scale 1.7500 Gmax 16.5316 1/A FBSC none
REM MP grid 5 2 2 Offset 0.000 0.000 0.000 No. kpts 3 Spacing 0.07
REM Total runtime: 1945.6 s
REM Overall efficiency: 71.3333 %
REM
REM 2LiFeSO4F.cell (6abdf011d38848201efe8211ff585b1c)
REM
REM compiler GCC version 4.9.2
REM options -cpp -iprefix /lustre/shared/ucl/apps/gcc/4.9.2/bin/../lib/gcc/x86_64-unknown-linux-gnu/4.9.2/ -mtune=corei7 -march=x86-64 -g -Og
REM COMMAND_LINE
REM seed -1137645260 -1768552482 -846255182 1578091014 -521180523 -255285596 -1741946324 -637635619 1797055349 1621038597 122574396 -1888256780
REM
REM S 3|1.8|5|6|7|30:31:32(qc=5)
REM O 2|1.5|12|13|15|20:21(qc=5)
REM Li 1|1.3|8|9|10|10U:20(qc=5)
REM Fe 3|2.2|2.0|1.0|8|9|10|40:41:32(qc=5)
REM F 2|1.6|10|12|13|20:21(qc=5)
REM 
CELL 1.54180    3.10248    8.66545   10.24678   90.00000   90.00000   90.00000
LATT -1
SFAC Li O  F  S  Fe 
Li     1 -0.3074620000000 -0.5000000000000 -0.0000000000000 1.0  -0.02
Li     1 -0.3074620000000  0.5000000000000 -0.5000000000000 1.0  -0.02
O      2  0.0694110000000  0.1634260000000  0.3725020000000 1.0   0.01
O      2 -0.3075240000000 -0.2703330000000  0.3611030000000 1.0   0.41
O      2  0.0694110000000 -0.1634260000000 -0.3725020000000 1.0   0.01
O      2 -0.3075240000000  0.2703330000000 -0.3611030000000 1.0   0.41
O      2  0.0694110000000 -0.1634260000000 -0.1274980000000 1.0   0.01
O      2 -0.3075240000000  0.2703330000000 -0.1388970000000 1.0   0.41
O      2  0.0694110000000  0.1634260000000  0.1274980000000 1.0   0.01
O      2 -0.3075240000000 -0.2703330000000  0.1388970000000 1.0   0.41
F      3  0.1923550000000 -0.5000000000000 -0.0000000000000 1.0   0.03
F      3  0.1923550000000  0.5000000000000 -0.5000000000000 1.0   0.03
S      4 -0.1173050000000 -0.1062470000000 -0.2500000000000 1.0   0.00
S      4 -0.1173050000000  0.1062470000000  0.2500000000000 1.0   0.00
Fe     5  0.2525630000000 -0.2747350000000  0.2500000000000 1.0   3.16
Fe     5  0.2525630000000  0.2747350000000 -0.2500000000000 1.0   3.16
END
