TITL 2LiFeSO4F-200819-024333-ab4b10 0.0069 236.906504 -7.56496091E+003 8.00000 8.09480 16 (C2) n - 1
REM
REM Run started: Wed, 19 Aug 2020 04:30:36 +0100 in /lustre/scratch/uccabz1/launch_tmp/launcher_2020-08-19-01-43-31-066178
REM CASTEP 20.1 from code version af48c487+ pr-geom-scf-spinfix Tue Jun 2 15:39:59 2020 +0100
REM Functional Perdew Burke Ernzerhof Relativity Koelling-Harmon Dispersion off
REM Cut-off 340.0000 eV Grid scale 1.7500 Gmax 16.5316 1/A FBSC none
REM MP grid 3 3 3 Offset 0.000 0.000 0.000 No. kpts 10 Spacing 0.07
REM Total runtime: 6610.08 s
REM Overall efficiency: 93.2 %
REM
REM 2LiFeSO4F.cell (6abdf011d38848201efe8211ff585b1c)
REM
REM compiler GCC version 4.9.2
REM options -cpp -iprefix /lustre/shared/ucl/apps/gcc/4.9.2/bin/../lib/gcc/x86_64-unknown-linux-gnu/4.9.2/ -mtune=corei7 -march=x86-64 -g -Og
REM COMMAND_LINE
REM seed -1290799122 1189979182 -1956550769 550227330 872563898 -419701513 142383381 533680421 1529780003 -1953834535 1400268082 1066822925
REM
REM S 3|1.8|5|6|7|30:31:32(qc=5)
REM O 2|1.5|12|13|15|20:21(qc=5)
REM Li 1|1.3|8|9|10|10U:20(qc=5)
REM Fe 3|2.2|2.0|1.0|8|9|10|40:41:32(qc=5)
REM F 2|1.6|10|12|13|20:21(qc=5)
REM 
CELL 1.54180    6.89367    6.89367    5.96004  109.98228  109.98228   99.60752
LATT -1
SFAC Li O  F  S  Fe 
Li     1  0.0767090000000  0.1406790000000  0.2555280000000 1.0  -0.02
Li     1 -0.1406790000000 -0.0767090000000 -0.2555280000000 1.0  -0.02
O      2 -0.8307930000000 -0.5833120000000 -0.4361660000000 1.0   0.01
O      2 -1.1369380000000 -0.5156080000000 -0.7246280000000 1.0   0.08
O      2 -0.8798690000000 -0.2137950000000 -0.3023320000000 1.0   0.04
O      2 -1.1253240000000 -0.5128390000000 -0.3065230000000 1.0   0.08
O      2 -0.4166880000000 -0.1692070000000  0.4361660000000 1.0   0.01
O      2 -0.4843920000000  0.1369380000000  0.7246280000000 1.0   0.08
O      2 -0.7862050000000 -0.1201310000000  0.3023320000000 1.0   0.04
O      2 -0.4871610000000  0.1253240000000  0.3065230000000 1.0   0.08
F      3  0.1153200000000  0.1730440000000 -0.0266720000000 1.0   0.07
F      3 -0.1730440000000 -0.1153200000000  0.0266720000000 1.0   0.07
S      4 -0.9854110000000 -0.4585630000000 -0.4382560000000 1.0   0.02
S      4 -0.5414370000000 -0.0145890000000  0.4382560000000 1.0   0.02
Fe     5 -0.0831340000000 -0.3657840000000  0.0640930000000 1.0   3.72
Fe     5  0.3657840000000  0.0831340000000 -0.0640930000000 1.0   3.72
END
