TITL 2LiFeSO4F-200804-042445-ac6811 0.0796 271.595948 -7.56562891E+003 8.00000 8.13204 16 (Pc) n - 1
REM
REM Run started: Tue, 04 Aug 2020 05:51:08 +0100 in /lustre/scratch/uccabz1/launch_tmp/launcher_2020-08-04-03-24-39-713460
REM CASTEP 20.1 from code version af48c487+ pr-geom-scf-spinfix Tue Jun 2 15:39:59 2020 +0100
REM Functional Perdew Burke Ernzerhof Relativity Koelling-Harmon Dispersion off
REM Cut-off 340.0000 eV Grid scale 1.7500 Gmax 16.5316 1/A FBSC none
REM MP grid 4 3 2 Offset 0.000 0.000 0.000 No. kpts 8 Spacing 0.07
REM Total runtime: 5891.49 s
REM Overall efficiency: 93.1111 %
REM
REM 2LiFeSO4F.cell (6abdf011d38848201efe8211ff585b1c)
REM
REM compiler GCC version 4.9.2
REM options -cpp -iprefix /lustre/shared/ucl/apps/gcc/4.9.2/bin/../lib/gcc/x86_64-unknown-linux-gnu/4.9.2/ -mtune=corei7 -march=x86-64 -g -Og
REM COMMAND_LINE
REM seed 1079597594 1675480643 909211253 240606172 -591456839 2362145 1641725511 1772378377 -1765614512 -2038796076 -2133626153 -837016249
REM
REM S 3|1.8|5|6|7|30:31:32(qc=5)
REM O 2|1.5|12|13|15|20:21(qc=5)
REM Li 1|1.3|8|9|10|10U:20(qc=5)
REM Fe 3|2.2|2.0|1.0|8|9|10|40:41:32(qc=5)
REM F 2|1.6|10|12|13|20:21(qc=5)
REM 
CELL 1.54180    4.78373    6.46010    8.79841   90.00000   87.28846   90.00000
LATT -1
SFAC Li O  F  S  Fe 
Li     1 -0.3300670000000 -0.2340490000000  0.0761370000000 1.0  -0.01
Li     1  0.1699330000000  0.2340490000000 -0.4238630000000 1.0  -0.01
O      2 -0.0172370000000 -0.1889930000000 -0.0625580000000 1.0   0.02
O      2  0.2490940000000  0.0193570000000 -0.2478640000000 1.0   0.06
O      2  0.3976440000000  0.0012590000000  0.0162070000000 1.0   0.05
O      2 -0.0271780000000  0.1957660000000 -0.0415370000000 1.0   0.04
O      2 -0.5172370000000  0.1889930000000  0.4374420000000 1.0   0.02
O      2 -0.2509060000000 -0.0193570000000  0.2521360000000 1.0   0.06
O      2 -0.1023560000000 -0.0012590000000  0.5162070000000 1.0   0.05
O      2 -0.5271780000000 -0.1957660000000  0.4584630000000 1.0   0.04
F      3 -0.4195140000000  0.5083120000000  0.1300520000000 1.0   0.12
F      3 -0.9195140000000 -0.5083120000000 -0.3699480000000 1.0   0.12
S      4  0.1430060000000  0.0077650000000 -0.0807980000000 1.0   0.01
S      4 -0.3569940000000 -0.0077650000000  0.4192020000000 1.0   0.01
Fe     5 -0.3687420000000  0.2267120000000  0.1226510000000 1.0   3.72
Fe     5  0.1312580000000 -0.2267120000000 -0.3773490000000 1.0   3.72
END
