TITL 2LiFeSO4F-200804-014339-e7419a 0.0456 247.398764 -7.56073247E+003 4.12998 6.40311 16 (Pma2) n - 1
REM
REM Run started: Tue, 04 Aug 2020 04:04:56 +0100 in /lustre/scratch/uccabz1/launch_tmp/launcher_2020-08-04-00-43-33-884863
REM CASTEP 20.1 from code version af48c487+ pr-geom-scf-spinfix Tue Jun 2 15:39:59 2020 +0100
REM Functional Perdew Burke Ernzerhof Relativity Koelling-Harmon Dispersion off
REM Cut-off 340.0000 eV Grid scale 1.7500 Gmax 16.5316 1/A FBSC none
REM MP grid 2 3 3 Offset 0.000 0.000 0.000 No. kpts 4 Spacing 0.07
REM Total runtime: 8507.84 s
REM Overall efficiency: 85.1818 %
REM
REM 2LiFeSO4F.cell (6abdf011d38848201efe8211ff585b1c)
REM
REM compiler GCC version 4.9.2
REM options -cpp -iprefix /lustre/shared/ucl/apps/gcc/4.9.2/bin/../lib/gcc/x86_64-unknown-linux-gnu/4.9.2/ -mtune=corei7 -march=x86-64 -g -Og
REM COMMAND_LINE
REM seed 1182389793 815781411 -2114001226 -2034373955 -1855905228 -376331365 -1903965876 -935186157 -1328194178 -2019605618 1978057029 -1904907244
REM
REM S 3|1.8|5|6|7|30:31:32(qc=5)
REM O 2|1.5|12|13|15|20:21(qc=5)
REM Li 1|1.3|8|9|10|10U:20(qc=5)
REM Fe 3|2.2|2.0|1.0|8|9|10|40:41:32(qc=5)
REM F 2|1.6|10|12|13|20:21(qc=5)
REM 
CELL 1.54180    7.81693    5.26104    6.01575   90.00000   90.00000   90.00000
LATT -1
SFAC Li O  F  S  Fe 
Li     1  0.1946320000000  0.5175600000000  0.2500000000000 1.0  -0.01
Li     1 -0.1946320000000  0.5175600000000 -0.2500000000000 1.0  -0.01
O      2  0.2611110000000  0.0438290000000 -0.0617840000000 1.0  -0.07
O      2  0.2740210000000  0.4959460000000 -0.0619380000000 1.0  -0.04
O      2 -0.2611110000000  0.0438290000000  0.0617840000000 1.0  -0.07
O      2 -0.2740210000000  0.4959460000000  0.0619380000000 1.0  -0.04
O      2 -0.2611110000000  0.0438290000000  0.4382160000000 1.0  -0.07
O      2 -0.2740210000000  0.4959460000000  0.4380620000000 1.0  -0.04
O      2  0.2611110000000  0.0438290000000 -0.4382160000000 1.0  -0.07
O      2  0.2740210000000  0.4959460000000 -0.4380620000000 1.0  -0.04
F      3  0.0068520000000 -0.2810130000000  0.2500000000000 1.0   0.16
F      3 -0.0068520000000 -0.2810130000000 -0.2500000000000 1.0   0.16
S      4  0.2281920000000  0.2688990000000 -0.2500000000000 1.0  -0.24
S      4 -0.2281920000000  0.2688990000000  0.2500000000000 1.0  -0.24
Fe     5 -0.2324810000000 -0.2279620000000  0.2500000000000 1.0   2.38
Fe     5  0.2324810000000 -0.2279620000000 -0.2500000000000 1.0   2.38
END
