TITL 2LiFeSO4F-200819-021656-2e5738 0.0062 213.622039 -7.55983344E+003 -5.98661 6.68387 16 (Pm) n - 1
REM
REM Run started: Wed, 19 Aug 2020 08:17:32 +0100 in /lustre/scratch/uccabz1/launch_tmp/launcher_2020-08-19-01-16-51-687826
REM CASTEP 20.1 from code version af48c487+ pr-geom-scf-spinfix Tue Jun 2 15:39:59 2020 +0100
REM Functional Perdew Burke Ernzerhof Relativity Koelling-Harmon Dispersion off
REM Cut-off 340.0000 eV Grid scale 1.7500 Gmax 16.5316 1/A FBSC none
REM MP grid 4 4 2 Offset 0.000 0.000 0.000 No. kpts 8 Spacing 0.07
REM Total runtime: 21698.9 s
REM Overall efficiency: 87.6923 %
REM
REM 2LiFeSO4F.cell (6abdf011d38848201efe8211ff585b1c)
REM
REM compiler GCC version 4.9.2
REM options -cpp -iprefix /lustre/shared/ucl/apps/gcc/4.9.2/bin/../lib/gcc/x86_64-unknown-linux-gnu/4.9.2/ -mtune=corei7 -march=x86-64 -g -Og
REM COMMAND_LINE
REM seed -146634938 185087262 -497396734 -824487963 -324464413 -1225159884 2092633329 -1651347408 1623247334 1273065503 -1880476988 1548671010
REM
REM S 3|1.8|5|6|7|30:31:32(qc=5)
REM O 2|1.5|12|13|15|20:21(qc=5)
REM Li 1|1.3|8|9|10|10U:20(qc=5)
REM Fe 3|2.2|2.0|1.0|8|9|10|40:41:32(qc=5)
REM F 2|1.6|10|12|13|20:21(qc=5)
REM 
CELL 1.54180    4.49273    4.79140   10.66072   90.00000   90.00000  111.42959
LATT -1
SFAC Li O  F  S  Fe 
Li     1 -0.3196220000000 -0.0661820000000  0.2295830000000 1.0   0.01
Li     1 -0.3196220000000 -0.0661820000000 -0.2295830000000 1.0   0.01
O      2 -0.1232460000000  0.0678640000000 -0.3936640000000 1.0  -0.10
O      2 -0.1066900000000 -0.7449780000000 -0.1089310000000 1.0   0.04
O      2 -0.5746120000000 -0.3824720000000 -0.3932620000000 1.0  -0.11
O      2 -0.3987990000000 -0.4470820000000 -0.1032090000000 1.0   0.00
O      2 -0.1232460000000  0.0678640000000  0.3936640000000 1.0  -0.10
O      2 -0.1066900000000 -0.7449780000000  0.1089310000000 1.0   0.04
O      2 -0.5746120000000 -0.3824720000000  0.3932620000000 1.0  -0.11
O      2 -0.3987990000000 -0.4470820000000  0.1032090000000 1.0   0.00
F      3  0.2819350000000 -0.1045240000000  0.1326190000000 1.0  -0.12
F      3  0.2819350000000 -0.1045240000000 -0.1326190000000 1.0  -0.12
S      4 -0.2804140000000 -0.2196580000000 -0.5000000000000 1.0  -0.06
S      4 -0.1981330000000  0.4187940000000  0.0000000000000 1.0   0.08
Fe     5  0.1173850000000  0.3715640000000 -0.5000000000000 1.0  -2.77
Fe     5  0.3534060000000 -0.3133820000000  0.0000000000000 1.0  -2.67
END
