TITL 2LiFeSO4F-200804-015835-5120ca 0.0224 239.064282 -7.55869322E+003 6.06535 7.43179 16 (P-1) n - 1
REM
REM Run started: Tue, 04 Aug 2020 05:45:09 +0100 in /lustre/scratch/uccabz1/launch_tmp/launcher_2020-08-04-00-58-33-403939
REM CASTEP 20.1 from code version af48c487+ pr-geom-scf-spinfix Tue Jun 2 15:39:59 2020 +0100
REM Functional Perdew Burke Ernzerhof Relativity Koelling-Harmon Dispersion off
REM Cut-off 340.0000 eV Grid scale 1.7500 Gmax 16.5316 1/A FBSC none
REM MP grid 5 2 2 Offset 0.000 0.000 0.000 No. kpts 10 Spacing 0.07
REM Total runtime: 14657.6 s
REM Overall efficiency: 85.4167 %
REM
REM 2LiFeSO4F.cell (6abdf011d38848201efe8211ff585b1c)
REM
REM compiler GCC version 4.9.2
REM options -cpp -iprefix /lustre/shared/ucl/apps/gcc/4.9.2/bin/../lib/gcc/x86_64-unknown-linux-gnu/4.9.2/ -mtune=corei7 -march=x86-64 -g -Og
REM COMMAND_LINE
REM seed -1194867435 1017389375 -1711691169 -482056450 -1293995534 -115865036 -497211537 784917382 571545158 1452902699 -788688900 -2035629058
REM
REM S 3|1.8|5|6|7|30:31:32(qc=5)
REM O 2|1.5|12|13|15|20:21(qc=5)
REM Li 1|1.3|8|9|10|10U:20(qc=5)
REM Fe 3|2.2|2.0|1.0|8|9|10|40:41:32(qc=5)
REM F 2|1.6|10|12|13|20:21(qc=5)
REM 
CELL 1.54180    3.36876   10.32474    7.45204  104.61435   83.36737  107.43276
LATT -1
SFAC Li O  F  S  Fe 
Li     1  0.8033100000000  0.3235760000000  0.3263340000000 1.0   0.01
Li     1 -0.8033100000000 -0.3235760000000 -0.3263340000000 1.0   0.01
O      2 -0.2752310000000 -0.3344010000000 -0.4600150000000 1.0   0.48
O      2  0.3952230000000 -0.1370470000000 -0.1435000000000 1.0  -0.05
O      2  0.0392000000000 -0.5052200000000 -0.2225350000000 1.0   0.00
O      2 -0.1677490000000 -0.3637260000000  0.0446520000000 1.0  -0.05
O      2  0.2752310000000  0.3344010000000  0.4600150000000 1.0   0.48
O      2 -0.3952230000000  0.1370470000000  0.1435000000000 1.0  -0.05
O      2 -0.0392000000000  0.5052200000000  0.2225350000000 1.0   0.00
O      2  0.1677490000000  0.3637260000000 -0.0446520000000 1.0  -0.05
F      3  0.4222610000000 -0.2163140000000  0.3226370000000 1.0   0.11
F      3 -0.4222610000000  0.2163140000000 -0.3226370000000 1.0   0.11
S      4  0.0000000000000  0.5000000000000  0.0000000000000 1.0  -0.27
S      4 -0.5000000000000  0.0000000000000  0.0000000000000 1.0  -0.09
Fe     5 -0.7729390000000  0.3303610000000 -0.3144020000000 1.0   2.72
Fe     5  0.7729390000000 -0.3303610000000  0.3144020000000 1.0   2.72
END
