TITL 2LiFeSO4F-200804-025631-13a1fe -0.0654 281.049496 -7.56525397E+003 8.00000 8.12969 16 (Pc) n - 1
REM
REM Run started: Tue, 04 Aug 2020 04:14:56 +0100 in /lustre/scratch/uccabz1/launch_tmp/launcher_2020-08-04-01-56-29-622790
REM CASTEP 20.1 from code version af48c487+ pr-geom-scf-spinfix Tue Jun 2 15:39:59 2020 +0100
REM Functional Perdew Burke Ernzerhof Relativity Koelling-Harmon Dispersion off
REM Cut-off 340.0000 eV Grid scale 1.7500 Gmax 16.5316 1/A FBSC none
REM MP grid 3 3 2 Offset 0.000 0.000 0.000 No. kpts 6 Spacing 0.07
REM Total runtime: 4965.89 s
REM Overall efficiency: 73.1818 %
REM
REM 2LiFeSO4F.cell (6abdf011d38848201efe8211ff585b1c)
REM
REM compiler GCC version 4.9.2
REM options -cpp -iprefix /lustre/shared/ucl/apps/gcc/4.9.2/bin/../lib/gcc/x86_64-unknown-linux-gnu/4.9.2/ -mtune=corei7 -march=x86-64 -g -Og
REM COMMAND_LINE
REM seed -791083679 -33020390 317370603 -1410615531 -1440592667 1614519117 2138466854 348769594 -1064561865 -1072697913 611802641 -1320362393
REM
REM S 3|1.8|5|6|7|30:31:32(qc=5)
REM O 2|1.5|12|13|15|20:21(qc=5)
REM Li 1|1.3|8|9|10|10U:20(qc=5)
REM Fe 3|2.2|2.0|1.0|8|9|10|40:41:32(qc=5)
REM F 2|1.6|10|12|13|20:21(qc=5)
REM 
CELL 1.54180    4.83987    6.01437    9.65705   88.85963   90.00000   90.00000
LATT -1
SFAC Li O  F  S  Fe 
Li     1  0.4556100000000  0.0802810000000 -0.1947280000000 1.0  -0.02
Li     1 -0.4556100000000  0.0802810000000  0.3052720000000 1.0  -0.02
O      2  0.5407910000000 -0.6166070000000 -0.1055840000000 1.0   0.06
O      2  0.5032280000000 -0.2076460000000 -0.1190040000000 1.0   0.01
O      2  0.1385270000000 -0.4243000000000 -0.0066310000000 1.0   0.07
O      2  0.1883500000000 -0.4397520000000 -0.2575790000000 1.0   0.06
O      2 -0.5407910000000 -0.6166070000000  0.3944160000000 1.0   0.06
O      2 -0.5032280000000 -0.2076460000000  0.3809960000000 1.0   0.01
O      2 -0.1385270000000 -0.4243000000000  0.4933690000000 1.0   0.07
O      2 -0.1883500000000 -0.4397520000000  0.2424210000000 1.0   0.06
F      3 -0.2874330000000  0.1354490000000  0.1448410000000 1.0   0.11
F      3  0.2874330000000  0.1354490000000 -0.3551590000000 1.0   0.11
S      4  0.3430270000000 -0.4163880000000 -0.1244930000000 1.0   0.02
S      4 -0.3430270000000 -0.4163880000000  0.3755070000000 1.0   0.02
Fe     5  0.1888490000000  0.4119230000000 -0.4418150000000 1.0   3.69
Fe     5 -0.1888490000000  0.4119230000000  0.0581850000000 1.0   3.69
END
