TITL 2LiFeSO4F-200819-004420-b2a0e9 0.0086 268.309084 -7.56507284E+003 8.00000 8.07091 16 (P2) n - 1
REM
REM Run started: Wed, 19 Aug 2020 02:37:14 +0100 in /lustre/scratch/uccabz1/launch_tmp/launcher_2020-08-18-23-44-18-559925
REM CASTEP 20.1 from code version af48c487+ pr-geom-scf-spinfix Tue Jun 2 15:39:59 2020 +0100
REM Functional Perdew Burke Ernzerhof Relativity Koelling-Harmon Dispersion off
REM Cut-off 340.0000 eV Grid scale 1.7500 Gmax 16.5316 1/A FBSC none
REM MP grid 3 3 2 Offset 0.000 0.000 0.000 No. kpts 6 Spacing 0.07
REM Total runtime: 6807.87 s
REM Overall efficiency: 76.25 %
REM
REM 2LiFeSO4F.cell (6abdf011d38848201efe8211ff585b1c)
REM
REM compiler GCC version 4.9.2
REM options -cpp -iprefix /lustre/shared/ucl/apps/gcc/4.9.2/bin/../lib/gcc/x86_64-unknown-linux-gnu/4.9.2/ -mtune=corei7 -march=x86-64 -g -Og
REM COMMAND_LINE
REM seed 1686090180 -1954965755 1844921191 1861060608 -1531010939 -1070571493 62487656 -1196213950 -1390522064 1434406182 1438353262 1740519827
REM
REM S 3|1.8|5|6|7|30:31:32(qc=5)
REM O 2|1.5|12|13|15|20:21(qc=5)
REM Li 1|1.3|8|9|10|10U:20(qc=5)
REM Fe 3|2.2|2.0|1.0|8|9|10|40:41:32(qc=5)
REM F 2|1.6|10|12|13|20:21(qc=5)
REM 
CELL 1.54180    6.01013    5.39111    8.32627   90.00000   84.01136   90.00000
LATT -1
SFAC Li O  F  S  Fe 
Li     1 -0.1779010000000  0.0973830000000  0.1207990000000 1.0  -0.00
Li     1  0.1779010000000  0.0973830000000 -0.1207990000000 1.0  -0.00
O      2  0.2271090000000 -0.3143030000000  0.2803440000000 1.0   0.07
O      2  0.2439220000000  0.1007660000000  0.3928310000000 1.0   0.08
O      2  0.1419660000000  0.0435120000000  0.1181400000000 1.0   0.01
O      2  0.5316300000000 -0.0312530000000  0.1770670000000 1.0   0.00
O      2 -0.2271090000000 -0.3143030000000 -0.2803440000000 1.0   0.07
O      2 -0.2439220000000  0.1007660000000 -0.3928310000000 1.0   0.08
O      2 -0.1419660000000  0.0435120000000 -0.1181400000000 1.0   0.01
O      2 -0.5316300000000 -0.0312530000000 -0.1770670000000 1.0   0.00
F      3 -0.3240080000000  0.4437770000000  0.3387860000000 1.0   0.16
F      3  0.3240080000000  0.4437770000000 -0.3387860000000 1.0   0.16
S      4  0.2933590000000 -0.0483090000000  0.2380500000000 1.0   0.01
S      4 -0.2933590000000 -0.0483090000000 -0.2380500000000 1.0   0.01
Fe     5  0.3358490000000  0.4442600000000  0.4286920000000 1.0   3.66
Fe     5 -0.3358490000000  0.4442600000000 -0.4286920000000 1.0   3.66
END
