TITL 2LiFeSO4F-200819-005710-41e11e 0.0638 212.322396 -7.56545438E+003 8.00000 8.14025 16 (P21) n - 1
REM
REM Run started: Wed, 19 Aug 2020 01:24:19 +0100 in /lustre/scratch/uccabz1/launch_tmp/launcher_2020-08-18-23-57-08-617682
REM CASTEP 20.1 from code version af48c487+ pr-geom-scf-spinfix Tue Jun 2 15:39:59 2020 +0100
REM Functional Perdew Burke Ernzerhof Relativity Koelling-Harmon Dispersion off
REM Cut-off 340.0000 eV Grid scale 1.7500 Gmax 16.5316 1/A FBSC none
REM MP grid 4 3 2 Offset 0.000 0.000 0.000 No. kpts 6 Spacing 0.07
REM Total runtime: 1866.57 s
REM Overall efficiency: 72.5714 %
REM
REM 2LiFeSO4F.cell (6abdf011d38848201efe8211ff585b1c)
REM
REM compiler GCC version 4.9.2
REM options -cpp -iprefix /lustre/shared/ucl/apps/gcc/4.9.2/bin/../lib/gcc/x86_64-unknown-linux-gnu/4.9.2/ -mtune=corei7 -march=x86-64 -g -Og
REM COMMAND_LINE
REM seed 259999996 -379785073 1340984243 758310009 -260049714 11362733 -1954038114 -532884642 -180692080 1437614475 -1953824360 1389688998
REM
REM S 3|1.8|5|6|7|30:31:32(qc=5)
REM O 2|1.5|12|13|15|20:21(qc=5)
REM Li 1|1.3|8|9|10|10U:20(qc=5)
REM Fe 3|2.2|2.0|1.0|8|9|10|40:41:32(qc=5)
REM F 2|1.6|10|12|13|20:21(qc=5)
REM 
CELL 1.54180    4.43407    5.67147    8.56032   90.00000   90.00000   99.49604
LATT -1
SFAC Li O  F  S  Fe 
Li     1  0.1512460000000 -0.1168310000000  0.1830090000000 1.0  -0.03
Li     1 -0.1512460000000  0.1168310000000 -0.3169910000000 1.0  -0.03
O      2 -0.3690220000000 -0.6800930000000 -0.1689330000000 1.0   0.03
O      2 -0.7856290000000 -0.5752900000000 -0.3281130000000 1.0   0.05
O      2 -0.3376250000000 -0.2677640000000 -0.2725060000000 1.0   0.03
O      2 -0.7019080000000 -0.4126990000000 -0.0615340000000 1.0   0.05
O      2  0.3690220000000  0.6800930000000  0.3310670000000 1.0   0.03
O      2  0.7856290000000  0.5752900000000  0.1718870000000 1.0   0.05
O      2  0.3376250000000  0.2677640000000  0.2274940000000 1.0   0.03
O      2  0.7019080000000  0.4126990000000  0.4384660000000 1.0   0.05
F      3 -0.0263340000000  0.0147340000000  0.0122610000000 1.0   0.13
F      3  0.0263340000000 -0.0147340000000 -0.4877390000000 1.0   0.13
S      4 -0.5432220000000 -0.4789650000000 -0.2064690000000 1.0   0.01
S      4  0.5432220000000  0.4789650000000  0.2935310000000 1.0   0.01
Fe     5 -0.0430570000000  0.3372780000000  0.0340540000000 1.0   3.72
Fe     5  0.0430570000000 -0.3372780000000 -0.4659460000000 1.0   3.72
END
