TITL 2LiFeSO4F-200804-045823-919ad9 0.0027 263.598943 -7.56403738E+003 8.00000 8.11152 16 (Pmmn) n - 1
REM
REM Run started: Tue, 04 Aug 2020 06:27:09 +0100 in /lustre/scratch/uccabz1/launch_tmp/launcher_2020-08-04-03-58-21-868632
REM CASTEP 20.1 from code version af48c487+ pr-geom-scf-spinfix Tue Jun 2 15:39:59 2020 +0100
REM Functional Perdew Burke Ernzerhof Relativity Koelling-Harmon Dispersion off
REM Cut-off 340.0000 eV Grid scale 1.7500 Gmax 16.5316 1/A FBSC none
REM MP grid 3 3 2 Offset 0.000 0.000 0.000 No. kpts 4 Spacing 0.07
REM Total runtime: 5524.27 s
REM Overall efficiency: 75 %
REM
REM 2LiFeSO4F.cell (6abdf011d38848201efe8211ff585b1c)
REM
REM compiler GCC version 4.9.2
REM options -cpp -iprefix /lustre/shared/ucl/apps/gcc/4.9.2/bin/../lib/gcc/x86_64-unknown-linux-gnu/4.9.2/ -mtune=corei7 -march=x86-64 -g -Og
REM COMMAND_LINE
REM seed 806590059 -1314793152 322591432 -243592914 1418203102 1059125304 -160880207 1223930819 1860426647 -630082839 -397932403 -236731005
REM
REM S 3|1.8|5|6|7|30:31:32(qc=5)
REM O 2|1.5|12|13|15|20:21(qc=5)
REM Li 1|1.3|8|9|10|10U:20(qc=5)
REM Fe 3|2.2|2.0|1.0|8|9|10|40:41:32(qc=5)
REM F 2|1.6|10|12|13|20:21(qc=5)
REM 
CELL 1.54180    5.15253    6.73106    7.60046   90.00000   90.00000   90.00000
LATT -1
SFAC Li O  F  S  Fe 
Li     1 -0.5000000000000  0.0000000000000  0.4331160000000 1.0  -0.01
Li     1  0.0000000000000 -0.5000000000000 -0.4331160000000 1.0  -0.01
O      2 -0.2350330000000 -0.4985050000000  0.0101260000000 1.0   0.05
O      2 -0.4984610000000 -0.1756260000000  0.2282900000000 1.0   0.04
O      2  0.2350330000000  0.4985050000000  0.0101260000000 1.0   0.05
O      2  0.4984610000000  0.1756260000000  0.2282900000000 1.0   0.04
O      2  0.2649670000000 -0.0014950000000 -0.0101260000000 1.0   0.05
O      2  0.0015390000000 -0.3243740000000 -0.2282900000000 1.0   0.04
O      2 -0.2649670000000  0.0014950000000 -0.0101260000000 1.0   0.05
O      2 -0.0015390000000  0.3243740000000 -0.2282900000000 1.0   0.04
F      3  0.0000000000000  0.0000000000000  0.5460310000000 1.0   0.11
F      3  0.5000000000000 -0.5000000000000 -0.5460310000000 1.0   0.11
S      4 -0.5000000000000  0.0000000000000  0.1019930000000 1.0   0.02
S      4  0.0000000000000 -0.5000000000000 -0.1019930000000 1.0   0.02
Fe     5  0.0000000000000  0.0000000000000 -0.2037030000000 1.0   3.70
Fe     5 -0.5000000000000 -0.5000000000000  0.2037030000000 1.0   3.70
END
