TITL 2LiFeSO4F-200818-233542-433cfc -0.0114 212.843755 -7.56553263E+003 8.00000 8.11137 16 (C2) n - 1
REM
REM Run started: Wed, 19 Aug 2020 01:32:07 +0100 in /lustre/scratch/uccabz1/launch_tmp/launcher_2020-08-18-22-35-38-884120
REM CASTEP 20.1 from code version af48c487+ pr-geom-scf-spinfix Tue Jun 2 15:39:59 2020 +0100
REM Functional Perdew Burke Ernzerhof Relativity Koelling-Harmon Dispersion off
REM Cut-off 340.0000 eV Grid scale 1.7500 Gmax 16.5316 1/A FBSC none
REM MP grid 3 3 3 Offset 0.000 0.000 0.000 No. kpts 10 Spacing 0.07
REM Total runtime: 7400.9 s
REM Overall efficiency: 94.8889 %
REM
REM 2LiFeSO4F.cell (6abdf011d38848201efe8211ff585b1c)
REM
REM compiler GCC version 4.9.2
REM options -cpp -iprefix /lustre/shared/ucl/apps/gcc/4.9.2/bin/../lib/gcc/x86_64-unknown-linux-gnu/4.9.2/ -mtune=corei7 -march=x86-64 -g -Og
REM COMMAND_LINE
REM seed 1084736181 -56071673 -931988029 -695344298 -50640821 1824583863 -721269527 1054765614 1826981291 -1523236307 -1202739731 -514082502
REM
REM S 3|1.8|5|6|7|30:31:32(qc=5)
REM O 2|1.5|12|13|15|20:21(qc=5)
REM Li 1|1.3|8|9|10|10U:20(qc=5)
REM Fe 3|2.2|2.0|1.0|8|9|10|40:41:32(qc=5)
REM F 2|1.6|10|12|13|20:21(qc=5)
REM 
CELL 1.54180    6.03134    6.00368    7.62168   67.16349   66.69219   59.84747
LATT -1
SFAC Li O  F  S  Fe 
Li     1  0.0873480000000  0.6217040000000 -0.2481340000000 1.0  -0.03
Li     1  0.4609190000000 -0.6217040000000  0.2481340000000 1.0  -0.03
O      2  0.6938360000000 -1.2390590000000  0.2715360000000 1.0   0.07
O      2  0.2782880000000 -1.2547450000000  0.2934540000000 1.0   0.01
O      2  0.2823600000000 -0.8429190000000  0.2871770000000 1.0   0.06
O      2  0.3374750000000 -1.2129500000000  0.5794560000000 1.0   0.04
O      2 -0.2736880000000  1.2390590000000 -0.2715360000000 1.0   0.07
O      2 -0.6830030000000  1.2547450000000 -0.2934540000000 1.0   0.01
O      2 -0.2733820000000  0.8429190000000 -0.2871770000000 1.0   0.06
O      2 -0.2960190000000  1.2129500000000 -0.5794560000000 1.0   0.04
F      3 -0.2533780000000  0.4224350000000  0.0306030000000 1.0   0.09
F      3  0.1996600000000 -0.4224350000000 -0.0306030000000 1.0   0.09
S      4  0.3984150000000 -1.1463270000000  0.3574820000000 1.0   0.02
S      4 -0.3904300000000  1.1463270000000 -0.3574820000000 1.0   0.02
Fe     5 -0.0530770000000 -0.5887740000000  0.1988310000000 1.0   3.74
Fe     5 -0.4430190000000  0.5887740000000 -0.1988310000000 1.0   3.74
END
