TITL 2LiFeSO4F-200819-001045-ad3541 -0.0049 190.215553 -7.56303093E+003 8.59211 9.02557 16 (P-1) n - 1
REM
REM Run started: Wed, 19 Aug 2020 03:34:38 +0100 in /scratch/scratch/uccabz1/launch_tmp/launcher_2020-08-18-23-10-34-605569
REM CASTEP 19.11| from code version Version unavailable
REM Functional Perdew Burke Ernzerhof Relativity Koelling-Harmon Dispersion off
REM Cut-off 340.0000 eV Grid scale 1.7500 Gmax 16.5316 1/A FBSC none
REM MP grid 6 3 2 Offset 0.000 0.000 0.000 No. kpts 18 Spacing 0.07
REM Total runtime: 12540.6 s
REM Overall efficiency: 88.9091 %
REM
REM 2LiFeSO4F.cell (6abdf011d38848201efe8211ff585b1c)
REM
REM compiler GCC version 4.9.2
REM options -cpp -iprefix /scratch/UCL/applications/gcc/4.9.2/bin/../lib/gcc/x86_64-unknown-linux-gnu/4.9.2/ -mtune=corei7 -march=x86-64 -g -O2
REM COMMAND_LINE
REM seed -1081831114 -1213396001 1578097045 -1311845240 1327644589 1772046658 939397892 685900922 1685818629 -1199412753 1602078904 340547427
REM
REM S 3|1.8|5|6|7|30:31:32(qc=5)
REM O 2|1.5|12|13|15|20:21(qc=5)
REM Li 1|1.3|8|9|10|10U:20(qc=5)
REM Fe 3|2.2|2.0|1.0|8|9|10|40:41:32(qc=5)
REM F 2|1.6|10|12|13|20:21(qc=5)
REM 
CELL 1.54180    3.03061    6.49617   11.29457   79.15637   76.90191   61.91629
LATT -1
SFAC Li O  F  S  Fe 
Li     1  0.1250770000000 -0.3038810000000 -0.2258230000000 1.0  -0.00
Li     1 -0.1250770000000  0.3038810000000  0.2258230000000 1.0  -0.00
O      2  0.0718620000000  0.2193260000000 -0.3102820000000 1.0   0.05
O      2 -0.1643620000000 -0.0291730000000 -0.1325830000000 1.0  -0.02
O      2 -0.5802280000000  0.3933730000000 -0.1278550000000 1.0  -0.02
O      2 -0.0718620000000 -0.2193260000000  0.3102820000000 1.0   0.05
O      2  0.1643620000000  0.0291730000000  0.1325830000000 1.0  -0.02
O      2  0.5802280000000 -0.3933730000000  0.1278550000000 1.0  -0.02
O      2  0.5000000000000 -0.5000000000000  0.5000000000000 1.0   0.43
O      2  0.0000000000000  0.0000000000000 -0.5000000000000 1.0   0.44
F      3  0.3227850000000  0.2814090000000  0.3223500000000 1.0   0.11
F      3 -0.3227850000000 -0.2814090000000 -0.3223500000000 1.0   0.11
S      4 -0.1014490000000  0.1897190000000 -0.1745820000000 1.0  -0.04
S      4  0.1014490000000 -0.1897190000000  0.1745820000000 1.0  -0.04
Fe     5 -0.7776630000000  0.2495860000000 -0.4970530000000 1.0   3.78
Fe     5  0.7776630000000 -0.2495860000000  0.4970530000000 1.0   3.78
END
