TITL 2LiFeSO4F-200804-050916-04c1c7 -0.0322 191.831933 -7.56408957E+003 8.00000 8.10122 16 (Pma2) n - 1
REM
REM Run started: Tue, 04 Aug 2020 05:27:16 +0100 in /lustre/scratch/uccabz1/launch_tmp/launcher_2020-08-04-04-09-14-326050
REM CASTEP 20.1 from code version af48c487+ pr-geom-scf-spinfix Tue Jun 2 15:39:59 2020 +0100
REM Functional Perdew Burke Ernzerhof Relativity Koelling-Harmon Dispersion off
REM Cut-off 340.0000 eV Grid scale 1.7500 Gmax 16.5316 1/A FBSC none
REM MP grid 4 3 2 Offset 0.000 0.000 0.000 No. kpts 4 Spacing 0.07
REM Total runtime: 1228.09 s
REM Overall efficiency: 73.8333 %
REM
REM 2LiFeSO4F.cell (6abdf011d38848201efe8211ff585b1c)
REM
REM compiler GCC version 4.9.2
REM options -cpp -iprefix /lustre/shared/ucl/apps/gcc/4.9.2/bin/../lib/gcc/x86_64-unknown-linux-gnu/4.9.2/ -mtune=corei7 -march=x86-64 -g -Og
REM COMMAND_LINE
REM seed 906619977 -882208561 -2146571528 1143466185 708875632 2103846491 -1996289376 -72948481 -53946003 -203543266 1498669203 792449339
REM
REM S 3|1.8|5|6|7|30:31:32(qc=5)
REM O 2|1.5|12|13|15|20:21(qc=5)
REM Li 1|1.3|8|9|10|10U:20(qc=5)
REM Fe 3|2.2|2.0|1.0|8|9|10|40:41:32(qc=5)
REM F 2|1.6|10|12|13|20:21(qc=5)
REM 
CELL 1.54180    4.39712    4.84629    9.00209   90.00000   90.00000   90.00000
LATT -1
SFAC Li O  F  S  Fe 
Li     1 -0.0582250000000 -0.4292330000000 -0.2500000000000 1.0  -0.03
Li     1  0.0582250000000 -0.4292330000000  0.2500000000000 1.0  -0.03
O      2 -0.3003580000000 -0.5605880000000  0.0946980000000 1.0   0.03
O      2 -0.2969730000000 -0.1992110000000 -0.0933480000000 1.0   0.04
O      2  0.3003580000000 -0.5605880000000 -0.0946980000000 1.0   0.03
O      2  0.2969730000000 -0.1992110000000  0.0933480000000 1.0   0.04
O      2  0.3003580000000 -0.5605880000000  0.5946980000000 1.0   0.03
O      2  0.2969730000000 -0.1992110000000  0.4066520000000 1.0   0.04
O      2 -0.3003580000000 -0.5605880000000 -0.5946980000000 1.0   0.03
O      2 -0.2969730000000 -0.1992110000000 -0.4066520000000 1.0   0.04
F      3 -0.0819560000000  0.1903970000000 -0.2500000000000 1.0   0.08
F      3  0.0819560000000  0.1903970000000  0.2500000000000 1.0   0.08
S      4 -0.5000000000000 -0.3817210000000 -0.0000000000000 1.0   0.01
S      4  0.5000000000000 -0.3817210000000  0.5000000000000 1.0   0.01
Fe     5  0.0000000000000  0.1139370000000 -0.0000000000000 1.0   3.80
Fe     5  0.0000000000000  0.1139370000000 -0.5000000000000 1.0   3.80
END
