TITL 2LiFeSO4F-200818-234553-75a665 -0.0181 234.387883 -7.56581875E+003 8.00000 8.06259 16 (P21) n - 1
REM
REM Run started: Wed, 19 Aug 2020 01:52:14 +0100 in /lustre/scratch/uccabz1/launch_tmp/launcher_2020-08-18-22-45-51-998582
REM CASTEP 20.1 from code version af48c487+ pr-geom-scf-spinfix Tue Jun 2 15:39:59 2020 +0100
REM Functional Perdew Burke Ernzerhof Relativity Koelling-Harmon Dispersion off
REM Cut-off 340.0000 eV Grid scale 1.7500 Gmax 16.5316 1/A FBSC none
REM MP grid 3 3 2 Offset 0.000 0.000 0.000 No. kpts 6 Spacing 0.07
REM Total runtime: 7690.72 s
REM Overall efficiency: 83.2308 %
REM
REM 2LiFeSO4F.cell (6abdf011d38848201efe8211ff585b1c)
REM
REM compiler GCC version 4.9.2
REM options -cpp -iprefix /lustre/shared/ucl/apps/gcc/4.9.2/bin/../lib/gcc/x86_64-unknown-linux-gnu/4.9.2/ -mtune=corei7 -march=x86-64 -g -Og
REM COMMAND_LINE
REM seed 1798487279 702597295 -667353147 399544051 -1155745441 1827020694 -865542635 -552016814 753336012 37230488 -1931299317 70291866
REM
REM S 3|1.8|5|6|7|30:31:32(qc=5)
REM O 2|1.5|12|13|15|20:21(qc=5)
REM Li 1|1.3|8|9|10|10U:20(qc=5)
REM Fe 3|2.2|2.0|1.0|8|9|10|40:41:32(qc=5)
REM F 2|1.6|10|12|13|20:21(qc=5)
REM 
CELL 1.54180    4.97681    6.40719    7.62318   74.62890   90.00000   90.00000
LATT -1
SFAC Li O  F  S  Fe 
Li     1 -0.4587290000000 -0.1575290000000 -0.0165050000000 1.0  -0.01
Li     1  0.0412710000000  0.1575290000000  0.0165050000000 1.0  -0.01
O      2  0.1827770000000 -0.2975860000000 -0.4667510000000 1.0   0.06
O      2  0.2511910000000 -0.2506170000000 -0.1621730000000 1.0   0.02
O      2  0.2519550000000 -0.6208450000000 -0.2084400000000 1.0   0.06
O      2 -0.1675450000000 -0.4206160000000 -0.2305840000000 1.0   0.07
O      2 -0.3172230000000  0.2975860000000  0.4667510000000 1.0   0.06
O      2 -0.2488090000000  0.2506170000000  0.1621730000000 1.0   0.02
O      2 -0.2480450000000  0.6208450000000  0.2084400000000 1.0   0.06
O      2 -0.6675450000000  0.4206160000000  0.2305840000000 1.0   0.07
F      3  0.2674930000000 -0.0663720000000  0.1252840000000 1.0   0.08
F      3 -0.2325070000000  0.0663720000000 -0.1252840000000 1.0   0.08
S      4  0.1315110000000 -0.3899050000000 -0.2660060000000 1.0   0.01
S      4 -0.3684890000000  0.3899050000000  0.2660060000000 1.0   0.01
Fe     5  0.1269170000000 -0.3310490000000  0.2862850000000 1.0   3.70
Fe     5 -0.3730830000000  0.3310490000000 -0.2862850000000 1.0   3.70
END
