TITL 2LiFeSO4F-200804-045823-1acf1c -0.0436 220.834084 -7.56505058E+003 8.00000 8.08163 16 (C2) n - 1
REM
REM Run started: Tue, 04 Aug 2020 07:49:37 +0100 in /lustre/scratch/uccabz1/launch_tmp/launcher_2020-08-04-03-58-21-029814
REM CASTEP 20.1 from code version af48c487+ pr-geom-scf-spinfix Tue Jun 2 15:39:59 2020 +0100
REM Functional Perdew Burke Ernzerhof Relativity Koelling-Harmon Dispersion off
REM Cut-off 340.0000 eV Grid scale 1.7500 Gmax 16.5316 1/A FBSC none
REM MP grid 3 3 2 Offset 0.000 0.000 0.000 No. kpts 6 Spacing 0.07
REM Total runtime: 10705.4 s
REM Overall efficiency: 71.7692 %
REM
REM 2LiFeSO4F.cell (6abdf011d38848201efe8211ff585b1c)
REM
REM compiler GCC version 4.9.2
REM options -cpp -iprefix /lustre/shared/ucl/apps/gcc/4.9.2/bin/../lib/gcc/x86_64-unknown-linux-gnu/4.9.2/ -mtune=corei7 -march=x86-64 -g -Og
REM COMMAND_LINE
REM seed -2104575498 1403491545 711002841 1321517475 1798286268 -933169928 -1554254741 1151476482 1808545776 178342306 1794088211 -2048042256
REM
REM S 3|1.8|5|6|7|30:31:32(qc=5)
REM O 2|1.5|12|13|15|20:21(qc=5)
REM Li 1|1.3|8|9|10|10U:20(qc=5)
REM Fe 3|2.2|2.0|1.0|8|9|10|40:41:32(qc=5)
REM F 2|1.6|10|12|13|20:21(qc=5)
REM 
CELL 1.54180    5.67772    5.90024    7.55218   94.65847   90.00000  118.76012
LATT -1
SFAC Li O  F  S  Fe 
Li     1  0.0656390000000  0.3734340000000  0.0128010000000 1.0  -0.01
Li     1 -0.3077950000000 -0.3734340000000 -0.0128010000000 1.0  -0.01
O      2  0.4631790000000  0.5930630000000 -0.2380760000000 1.0   0.06
O      2  0.0415660000000  0.1792650000000 -0.2390850000000 1.0   0.02
O      2  0.4723280000000  0.1739750000000 -0.2772580000000 1.0   0.07
O      2  0.2875390000000  0.3085500000000 -0.5168020000000 1.0   0.06
O      2 -0.1298830000000 -0.5930630000000  0.2380760000000 1.0   0.06
O      2 -0.1376990000000 -0.1792650000000  0.2390850000000 1.0   0.02
O      2  0.2983530000000 -0.1739750000000  0.2772580000000 1.0   0.07
O      2 -0.0210110000000 -0.3085500000000  0.5168020000000 1.0   0.06
F      3  0.0105030000000 -0.3690060000000 -0.0870930000000 1.0   0.08
F      3  0.3795090000000  0.3690060000000  0.0870930000000 1.0   0.08
S      4  0.3085710000000  0.3075960000000 -0.3179840000000 1.0   0.01
S      4  0.0009750000000 -0.3075960000000  0.3179840000000 1.0   0.01
Fe     5 -0.5400170000000  0.2141730000000  0.2795890000000 1.0   3.71
Fe     5  0.2458100000000 -0.2141730000000 -0.2795890000000 1.0   3.71
END
