TITL 2LiFeSO4F-200818-210401-cea6f1 0.0257 207.526500 -7.56493732E+003 8.00000 8.16122 16 (C2) n - 1
REM
REM Run started: Wed, 19 Aug 2020 00:23:05 +0100 in /lustre/scratch/uccabz1/launch_tmp/launcher_2020-08-18-20-03-57-394297
REM CASTEP 20.1 from code version af48c487+ pr-geom-scf-spinfix Tue Jun 2 15:39:59 2020 +0100
REM Functional Perdew Burke Ernzerhof Relativity Koelling-Harmon Dispersion off
REM Cut-off 340.0000 eV Grid scale 1.7500 Gmax 16.5316 1/A FBSC none
REM MP grid 3 2 4 Offset 0.000 0.000 0.000 No. kpts 10 Spacing 0.07
REM Total runtime: 12250.4 s
REM Overall efficiency: 84.2 %
REM
REM 2LiFeSO4F.cell (6abdf011d38848201efe8211ff585b1c)
REM
REM compiler GCC version 4.9.2
REM options -cpp -iprefix /lustre/shared/ucl/apps/gcc/4.9.2/bin/../lib/gcc/x86_64-unknown-linux-gnu/4.9.2/ -mtune=corei7 -march=x86-64 -g -Og
REM COMMAND_LINE
REM seed 766038762 1094372249 984745936 -692837655 1216169962 -231076786 309584173 1746871027 -128538932 -1001276941 990783332 544649801
REM
REM S 3|1.8|5|6|7|30:31:32(qc=5)
REM O 2|1.5|12|13|15|20:21(qc=5)
REM Li 1|1.3|8|9|10|10U:20(qc=5)
REM Fe 3|2.2|2.0|1.0|8|9|10|40:41:32(qc=5)
REM F 2|1.6|10|12|13|20:21(qc=5)
REM 
CELL 1.54180    6.00260    7.58457    5.60733   81.63773   57.63945   74.23396
LATT -1
SFAC Li O  F  S  Fe 
Li     1  0.5504440000000 -0.2891050000000 -0.6378790000000 1.0  -0.03
Li     1  0.0874350000000  0.2891050000000 -0.6378790000000 1.0  -0.03
O      2 -0.5545410000000  0.1322350000000  0.6107610000000 1.0   0.03
O      2 -0.5361130000000  0.3133850000000  0.2049210000000 1.0   0.05
O      2 -0.1144410000000  0.1991640000000  0.2144900000000 1.0   0.04
O      2 -0.4708720000000  0.4424070000000  0.5379810000000 1.0   0.05
O      2 -0.0562200000000 -0.1322350000000  0.6107610000000 1.0   0.03
O      2  0.3311920000000 -0.3133850000000  0.2049210000000 1.0   0.05
O      2 -0.1000490000000 -0.1991640000000  0.2144900000000 1.0   0.04
O      2 -0.0671090000000 -0.4424070000000  0.5379810000000 1.0   0.05
F      3 -0.0890780000000  0.2118900000000 -0.2832990000000 1.0   0.10
F      3  0.3723770000000 -0.2118900000000 -0.2832990000000 1.0   0.10
S      4 -0.4205920000000  0.2660420000000  0.3981920000000 1.0   0.01
S      4  0.0224010000000 -0.2660420000000  0.3981920000000 1.0   0.01
Fe     5  0.0663430000000  0.0000000000000 -0.1326860000000 1.0   3.82
Fe     5  0.5686860000000 -0.5000000000000 -0.1373720000000 1.0   3.70
END
