TITL 2LiFeSO4F-200804-050156-db4a95 0.0480 189.721983 -7.56484338E+003 8.00000 8.08898 16 (P2) n - 1
REM
REM Run started: Tue, 04 Aug 2020 05:30:14 +0100 in /lustre/scratch/uccabz1/launch_tmp/launcher_2020-08-04-04-01-53-829960
REM CASTEP 20.1 from code version af48c487+ pr-geom-scf-spinfix Tue Jun 2 15:39:59 2020 +0100
REM Functional Perdew Burke Ernzerhof Relativity Koelling-Harmon Dispersion off
REM Cut-off 340.0000 eV Grid scale 1.7500 Gmax 16.5316 1/A FBSC none
REM MP grid 4 4 2 Offset 0.000 0.000 0.000 No. kpts 8 Spacing 0.07
REM Total runtime: 1746.42 s
REM Overall efficiency: 73.5714 %
REM
REM 2LiFeSO4F.cell (6abdf011d38848201efe8211ff585b1c)
REM
REM compiler GCC version 4.9.2
REM options -cpp -iprefix /lustre/shared/ucl/apps/gcc/4.9.2/bin/../lib/gcc/x86_64-unknown-linux-gnu/4.9.2/ -mtune=corei7 -march=x86-64 -g -Og
REM COMMAND_LINE
REM seed 528385199 858117068 -842133514 46373387 -2055830399 1763007758 1947891818 -449125185 -1930548424 1383181225 523844612 779121800
REM
REM S 3|1.8|5|6|7|30:31:32(qc=5)
REM O 2|1.5|12|13|15|20:21(qc=5)
REM Li 1|1.3|8|9|10|10U:20(qc=5)
REM Fe 3|2.2|2.0|1.0|8|9|10|40:41:32(qc=5)
REM F 2|1.6|10|12|13|20:21(qc=5)
REM 
CELL 1.54180    4.74286    4.72503    8.46605   89.65416   90.00000   90.00000
LATT -1
SFAC Li O  F  S  Fe 
Li     1 -0.4073940000000  0.0000000000000  0.0000000000000 1.0  -0.04
Li     1  0.0770970000000 -0.5000000000000 -0.5000000000000 1.0  -0.04
O      2 -0.2700790000000  0.2861760000000  0.1547680000000 1.0   0.03
O      2 -0.5722450000000  0.7256250000000  0.1516260000000 1.0   0.03
O      2 -0.2062830000000  0.6564860000000  0.3482120000000 1.0   0.03
O      2 -0.6451980000000  0.3538940000000  0.3453330000000 1.0   0.03
O      2 -0.2700790000000 -0.2861760000000 -0.1547680000000 1.0   0.03
O      2 -0.5722450000000 -0.7256250000000 -0.1516260000000 1.0   0.03
O      2 -0.2062830000000 -0.6564860000000 -0.3482120000000 1.0   0.03
O      2 -0.6451980000000 -0.3538940000000 -0.3453330000000 1.0   0.03
F      3  0.0833840000000  0.0000000000000 -0.5000000000000 1.0   0.10
F      3  0.0631440000000  0.0000000000000  0.0000000000000 1.0   0.10
S      4 -0.4230220000000  0.5050100000000  0.2500760000000 1.0   0.01
S      4 -0.4230220000000 -0.5050100000000 -0.2500760000000 1.0   0.01
Fe     5  0.0797490000000 -0.0005540000000 -0.2495180000000 1.0   3.80
Fe     5  0.0797490000000  0.0005540000000  0.2495180000000 1.0   3.80
END
