TITL 2LiFeSO4F-200818-213420-42377c 0.0037 246.167582 -7.56311230E+003 8.00010 8.09262 16 (Cm) n - 1
REM
REM Run started: Tue, 18 Aug 2020 23:33:02 +0100 in /lustre/scratch/uccabz1/launch_tmp/launcher_2020-08-18-20-34-18-419825
REM CASTEP 20.1 from code version af48c487+ pr-geom-scf-spinfix Tue Jun 2 15:39:59 2020 +0100
REM Functional Perdew Burke Ernzerhof Relativity Koelling-Harmon Dispersion off
REM Cut-off 340.0000 eV Grid scale 1.7500 Gmax 16.5316 1/A FBSC none
REM MP grid 3 3 3 Offset 0.000 0.000 0.000 No. kpts 10 Spacing 0.07
REM Total runtime: 7173.7 s
REM Overall efficiency: 92.5 %
REM
REM 2LiFeSO4F.cell (6abdf011d38848201efe8211ff585b1c)
REM
REM compiler GCC version 4.9.2
REM options -cpp -iprefix /lustre/shared/ucl/apps/gcc/4.9.2/bin/../lib/gcc/x86_64-unknown-linux-gnu/4.9.2/ -mtune=corei7 -march=x86-64 -g -Og
REM COMMAND_LINE
REM seed 446748730 -688747923 1813023828 809665214 -749311548 313627417 -302269895 848827565 1605063120 1331597453 -1098098191 -1332993636
REM
REM S 3|1.8|5|6|7|30:31:32(qc=5)
REM O 2|1.5|12|13|15|20:21(qc=5)
REM Li 1|1.3|8|9|10|10U:20(qc=5)
REM Fe 3|2.2|2.0|1.0|8|9|10|40:41:32(qc=5)
REM F 2|1.6|10|12|13|20:21(qc=5)
REM 
CELL 1.54180    6.24323    6.24323    7.01915   81.15185   81.15185   66.25330
LATT -1
SFAC Li O  F  S  Fe 
Li     1 -0.1910150000000 -0.1910150000000 -0.4403470000000 1.0  -0.02
Li     1  0.1997540000000  0.1997540000000  0.3871480000000 1.0  -0.03
O      2 -0.2489270000000  0.3466930000000 -0.0882520000000 1.0   0.03
O      2 -0.2627330000000  0.1041420000000 -0.3320010000000 1.0   0.00
O      2 -0.0628390000000  0.3879820000000 -0.4177670000000 1.0   0.00
O      2  0.3466930000000 -0.2489270000000 -0.0882520000000 1.0   0.03
O      2  0.1041420000000 -0.2627330000000 -0.3320010000000 1.0   0.00
O      2  0.3879820000000 -0.0628390000000 -0.4177670000000 1.0   0.00
O      2  0.5084510000000  0.5084510000000 -0.3711850000000 1.0   0.01
O      2  0.0744290000000  0.0744290000000  0.2278200000000 1.0   0.42
F      3 -0.1765300000000 -0.1765300000000  0.2896690000000 1.0   0.10
F      3  0.3930550000000  0.3930550000000  0.2455840000000 1.0   0.06
S      4 -0.2431450000000  0.3181490000000 -0.2949110000000 1.0   0.01
S      4  0.3181490000000 -0.2431450000000 -0.2949110000000 1.0   0.01
Fe     5 -0.2419830000000  0.1846430000000  0.1877470000000 1.0   3.68
Fe     5  0.1846430000000 -0.2419830000000  0.1877470000000 1.0   3.68
END
