TITL 2LiFeSO4F-200819-001951-666a6a -0.0080 268.302883 -7.56501205E+003 8.00000 8.14327 16 (Pc) n - 1
REM
REM Run started: Wed, 19 Aug 2020 03:05:27 +0100 in /lustre/scratch/uccabz1/launch_tmp/launcher_2020-08-18-23-19-49-763036
REM CASTEP 20.1 from code version af48c487+ pr-geom-scf-spinfix Tue Jun 2 15:39:59 2020 +0100
REM Functional Perdew Burke Ernzerhof Relativity Koelling-Harmon Dispersion off
REM Cut-off 340.0000 eV Grid scale 1.7500 Gmax 16.5316 1/A FBSC none
REM MP grid 4 4 2 Offset 0.000 0.000 0.000 No. kpts 8 Spacing 0.07
REM Total runtime: 10601.4 s
REM Overall efficiency: 94.3846 %
REM
REM 2LiFeSO4F.cell (6abdf011d38848201efe8211ff585b1c)
REM
REM compiler GCC version 4.9.2
REM options -cpp -iprefix /lustre/shared/ucl/apps/gcc/4.9.2/bin/../lib/gcc/x86_64-unknown-linux-gnu/4.9.2/ -mtune=corei7 -march=x86-64 -g -Og
REM COMMAND_LINE
REM seed 691439304 -73754985 -2007235857 -1141351249 -1145693945 1816668252 -1678754162 -1471712052 -1413623516 -675343575 -1417356956 319363205
REM
REM S 3|1.8|5|6|7|30:31:32(qc=5)
REM O 2|1.5|12|13|15|20:21(qc=5)
REM Li 1|1.3|8|9|10|10U:20(qc=5)
REM Fe 3|2.2|2.0|1.0|8|9|10|40:41:32(qc=5)
REM F 2|1.6|10|12|13|20:21(qc=5)
REM 
CELL 1.54180    4.58635    4.47319   15.50560   90.00000  122.49518   90.00000
LATT -1
SFAC Li O  F  S  Fe 
Li     1 -0.1254480000000  0.3591180000000  0.2034910000000 1.0  -0.01
Li     1 -0.6254480000000 -0.3591180000000 -0.2965090000000 1.0  -0.01
O      2 -0.3027080000000 -0.0566900000000 -0.2274770000000 1.0   0.01
O      2 -0.3304180000000 -0.0874510000000 -0.0718680000000 1.0   0.06
O      2 -0.5467190000000  0.3575090000000 -0.1818830000000 1.0   0.07
O      2  0.0778960000000  0.2516390000000 -0.0754810000000 1.0   0.06
O      2  0.1972920000000  0.0566900000000  0.2725230000000 1.0   0.01
O      2  0.1695820000000  0.0874510000000  0.4281320000000 1.0   0.06
O      2 -0.0467190000000 -0.3575090000000  0.3181170000000 1.0   0.07
O      2  0.5778960000000 -0.2516390000000  0.4245190000000 1.0   0.06
F      3  0.1799090000000  0.4674960000000 -0.4161550000000 1.0   0.12
F      3 -0.3200910000000 -0.4674960000000  0.0838450000000 1.0   0.12
S      4 -0.2706830000000  0.1089420000000 -0.1399280000000 1.0   0.02
S      4  0.2293170000000 -0.1089420000000  0.3600720000000 1.0   0.02
Fe     5  0.4551440000000 -0.4740990000000 -0.0590420000000 1.0   3.68
Fe     5 -0.0448560000000  0.4740990000000  0.4409580000000 1.0   3.68
END
