TITL 2LiFeSO4F-200818-225646-0f2949 -0.0088 220.301966 -7.56527275E+003 8.00000 8.10159 16 (P2) n - 1
REM
REM Run started: Tue, 18 Aug 2020 23:27:13 +0100 in /lustre/scratch/uccabz1/launch_tmp/launcher_2020-08-18-21-56-44-698079
REM CASTEP 20.1 from code version af48c487+ pr-geom-scf-spinfix Tue Jun 2 15:39:59 2020 +0100
REM Functional Perdew Burke Ernzerhof Relativity Koelling-Harmon Dispersion off
REM Cut-off 340.0000 eV Grid scale 1.7500 Gmax 16.5316 1/A FBSC none
REM MP grid 3 3 2 Offset 0.000 0.000 0.000 No. kpts 6 Spacing 0.07
REM Total runtime: 1931.49 s
REM Overall efficiency: 71.2857 %
REM
REM 2LiFeSO4F.cell (6abdf011d38848201efe8211ff585b1c)
REM
REM compiler GCC version 4.9.2
REM options -cpp -iprefix /lustre/shared/ucl/apps/gcc/4.9.2/bin/../lib/gcc/x86_64-unknown-linux-gnu/4.9.2/ -mtune=corei7 -march=x86-64 -g -Og
REM COMMAND_LINE
REM seed -1197622624 -320370028 -1578527116 1102433736 828724507 589479232 -1774698195 2120723992 -1984560852 2123189611 664149001 237675466
REM
REM S 3|1.8|5|6|7|30:31:32(qc=5)
REM O 2|1.5|12|13|15|20:21(qc=5)
REM Li 1|1.3|8|9|10|10U:20(qc=5)
REM Fe 3|2.2|2.0|1.0|8|9|10|40:41:32(qc=5)
REM F 2|1.6|10|12|13|20:21(qc=5)
REM 
CELL 1.54180    4.91000    5.72416    7.84924   93.01859   90.00000   90.00000
LATT -1
SFAC Li O  F  S  Fe 
Li     1  0.1676590000000  0.2134250000000  0.3701940000000 1.0  -0.01
Li     1  0.1676590000000 -0.2134250000000 -0.3701940000000 1.0  -0.01
O      2  0.4129540000000  0.1579420000000 -0.1210880000000 1.0   0.07
O      2 -0.0497830000000  0.3208170000000 -0.1257510000000 1.0   0.06
O      2  0.1932330000000  0.2144990000000 -0.3911210000000 1.0   0.02
O      2  0.3406070000000  0.5602130000000 -0.2125170000000 1.0   0.04
O      2  0.4129540000000 -0.1579420000000  0.1210880000000 1.0   0.07
O      2 -0.0497830000000 -0.3208170000000  0.1257510000000 1.0   0.06
O      2  0.1932330000000 -0.2144990000000  0.3911210000000 1.0   0.02
O      2  0.3406070000000 -0.5602130000000  0.2125170000000 1.0   0.04
F      3 -0.1602370000000  0.1927960000000  0.2669480000000 1.0   0.13
F      3 -0.1602370000000 -0.1927960000000 -0.2669480000000 1.0   0.13
S      4  0.2209360000000  0.3152310000000 -0.2144110000000 1.0   0.01
S      4  0.2209360000000 -0.3152310000000  0.2144110000000 1.0   0.01
Fe     5 -0.3313240000000 -0.2521800000000 -0.0633790000000 1.0   3.68
Fe     5 -0.3313240000000  0.2521800000000  0.0633790000000 1.0   3.68
END
