TITL 2LiFeSO4F-200804-023800-d39a3b -0.0104 207.962947 -7.56588520E+003 8.00000 8.11692 16 (P2) n - 1
REM
REM Run started: Tue, 04 Aug 2020 03:47:52 +0100 in /lustre/scratch/uccabz1/launch_tmp/launcher_2020-08-04-01-37-57-565813
REM CASTEP 20.1 from code version af48c487+ pr-geom-scf-spinfix Tue Jun 2 15:39:59 2020 +0100
REM Functional Perdew Burke Ernzerhof Relativity Koelling-Harmon Dispersion off
REM Cut-off 340.0000 eV Grid scale 1.7500 Gmax 16.5316 1/A FBSC none
REM MP grid 4 3 2 Offset 0.000 0.000 0.000 No. kpts 6 Spacing 0.07
REM Total runtime: 4224.65 s
REM Overall efficiency: 74.9 %
REM
REM 2LiFeSO4F.cell (6abdf011d38848201efe8211ff585b1c)
REM
REM compiler GCC version 4.9.2
REM options -cpp -iprefix /lustre/shared/ucl/apps/gcc/4.9.2/bin/../lib/gcc/x86_64-unknown-linux-gnu/4.9.2/ -mtune=corei7 -march=x86-64 -g -Og
REM COMMAND_LINE
REM seed -846318745 -1245311342 1420343369 1009339365 -2070914600 700441476 -1249213287 113450437 -1224392531 1952614650 1764591033 618526441
REM
REM S 3|1.8|5|6|7|30:31:32(qc=5)
REM O 2|1.5|12|13|15|20:21(qc=5)
REM Li 1|1.3|8|9|10|10U:20(qc=5)
REM Fe 3|2.2|2.0|1.0|8|9|10|40:41:32(qc=5)
REM F 2|1.6|10|12|13|20:21(qc=5)
REM 
CELL 1.54180    4.69664    6.04736    7.96405  113.16318   90.00000   90.00000
LATT -1
SFAC Li O  F  S  Fe 
Li     1  0.5285090000000 -0.3325850000000 -0.1861650000000 1.0  -0.01
Li     1  0.5285090000000  0.3325850000000  0.1861650000000 1.0  -0.01
O      2  0.4820490000000 -0.1052550000000 -0.3095460000000 1.0   0.04
O      2  0.3143550000000  0.2324640000000 -0.0349230000000 1.0   0.02
O      2  0.0301990000000  0.0954180000000 -0.3155320000000 1.0   0.08
O      2  0.4826100000000  0.3055650000000 -0.3028680000000 1.0   0.04
O      2  0.4820490000000  0.1052550000000  0.3095460000000 1.0   0.04
O      2  0.3143550000000 -0.2324640000000  0.0349230000000 1.0   0.02
O      2  0.0301990000000 -0.0954180000000  0.3155320000000 1.0   0.08
O      2  0.4826100000000 -0.3055650000000  0.3028680000000 1.0   0.04
F      3 -0.1112250000000 -0.4102430000000 -0.3271420000000 1.0   0.10
F      3 -0.1112250000000  0.4102430000000  0.3271420000000 1.0   0.10
S      4  0.3325180000000  0.1357580000000 -0.2351480000000 1.0   0.01
S      4  0.3325180000000 -0.1357580000000  0.2351480000000 1.0   0.01
Fe     5 -0.1635610000000 -0.2292710000000 -0.5011720000000 1.0   3.72
Fe     5 -0.1635610000000  0.2292710000000  0.5011720000000 1.0   3.72
END
