TITL 2LiFeSO4F-200819-002227-e9ef04 0.0053 183.362934 -7.56564463E+003 8.00000 8.10559 16 (Cc) n - 1
REM
REM Run started: Wed, 19 Aug 2020 01:29:48 +0100 in /lustre/scratch/uccabz1/launch_tmp/launcher_2020-08-18-23-22-25-467998
REM CASTEP 20.1 from code version af48c487+ pr-geom-scf-spinfix Tue Jun 2 15:39:59 2020 +0100
REM Functional Perdew Burke Ernzerhof Relativity Koelling-Harmon Dispersion off
REM Cut-off 340.0000 eV Grid scale 1.7500 Gmax 16.5316 1/A FBSC none
REM MP grid 3 3 3 Offset 0.000 0.000 0.000 No. kpts 10 Spacing 0.07
REM Total runtime: 4612.19 s
REM Overall efficiency: 94 %
REM
REM 2LiFeSO4F.cell (6abdf011d38848201efe8211ff585b1c)
REM
REM compiler GCC version 4.9.2
REM options -cpp -iprefix /lustre/shared/ucl/apps/gcc/4.9.2/bin/../lib/gcc/x86_64-unknown-linux-gnu/4.9.2/ -mtune=corei7 -march=x86-64 -g -Og
REM COMMAND_LINE
REM seed 507244595 -1077375070 1482301616 1787859159 1173531139 625047201 -194220609 2062341448 -918726470 854897124 150278958 1298187656
REM
REM S 3|1.8|5|6|7|30:31:32(qc=5)
REM O 2|1.5|12|13|15|20:21(qc=5)
REM Li 1|1.3|8|9|10|10U:20(qc=5)
REM Fe 3|2.2|2.0|1.0|8|9|10|40:41:32(qc=5)
REM F 2|1.6|10|12|13|20:21(qc=5)
REM 
CELL 1.54180    5.98977    6.06742    6.37940  109.83741  109.35990  106.86453
LATT -1
SFAC Li O  F  S  Fe 
Li     1 -0.4355530000000 -0.1242080000000 -0.4146880000000 1.0  -0.02
Li     1  0.4791350000000  0.2904800000000  0.4146880000000 1.0  -0.02
O      2  0.2586120000000  0.5121750000000  0.3904830000000 1.0   0.01
O      2 -0.0951610000000  0.5731590000000  0.1183100000000 1.0   0.08
O      2 -0.1291600000000  0.4858450000000  0.4588540000000 1.0   0.03
O      2 -0.1797240000000  0.1377270000000  0.0783550000000 1.0   0.05
O      2  0.3681290000000  0.1216920000000 -0.3904830000000 1.0   0.01
O      2  0.2865290000000  0.4548490000000 -0.1183100000000 1.0   0.08
O      2 -0.0880130000000  0.0269910000000 -0.4588540000000 1.0   0.03
O      2  0.2419220000000  0.0593720000000 -0.0783550000000 1.0   0.05
F      3 -0.5588700000000 -0.0947180000000  0.2286650000000 1.0   0.11
F      3 -0.2875350000000 -0.3233830000000 -0.2286650000000 1.0   0.11
S      4 -0.0327690000000  0.4253800000000  0.2664240000000 1.0   0.01
S      4  0.2008060000000  0.1589550000000 -0.2664240000000 1.0   0.01
Fe     5  0.0749830000000 -0.3153940000000 -0.1080570000000 1.0   3.73
Fe     5 -0.3169600000000 -0.2073380000000  0.1080570000000 1.0   3.73
END
