TITL 2LiFeSO4F-200819-015913-055540 -0.0154 227.851592 -7.56466727E+003 8.00000 8.10077 16 (Pma2) n - 1
REM
REM Run started: Wed, 19 Aug 2020 03:37:26 +0100 in /lustre/scratch/uccabz1/launch_tmp/launcher_2020-08-19-00-59-10-821440
REM CASTEP 20.1 from code version af48c487+ pr-geom-scf-spinfix Tue Jun 2 15:39:59 2020 +0100
REM Functional Perdew Burke Ernzerhof Relativity Koelling-Harmon Dispersion off
REM Cut-off 340.0000 eV Grid scale 1.7500 Gmax 16.5316 1/A FBSC none
REM MP grid 3 4 2 Offset 0.000 0.000 0.000 No. kpts 4 Spacing 0.07
REM Total runtime: 6498.41 s
REM Overall efficiency: 76.0769 %
REM
REM 2LiFeSO4F.cell (6abdf011d38848201efe8211ff585b1c)
REM
REM compiler GCC version 4.9.2
REM options -cpp -iprefix /lustre/shared/ucl/apps/gcc/4.9.2/bin/../lib/gcc/x86_64-unknown-linux-gnu/4.9.2/ -mtune=corei7 -march=x86-64 -g -Og
REM COMMAND_LINE
REM seed 826386551 355435842 586703469 263459419 1195773073 -1592166322 359103328 1908567986 2009994831 -2011384890 629706310 2024802395
REM
REM S 3|1.8|5|6|7|30:31:32(qc=5)
REM O 2|1.5|12|13|15|20:21(qc=5)
REM Li 1|1.3|8|9|10|10U:20(qc=5)
REM Fe 3|2.2|2.0|1.0|8|9|10|40:41:32(qc=5)
REM F 2|1.6|10|12|13|20:21(qc=5)
REM 
CELL 1.54180    5.71363    4.32217    9.22653   90.00000   90.00000   90.00000
LATT -1
SFAC Li O  F  S  Fe 
Li     1  0.2036550000000 -0.0644950000000 -0.2500000000000 1.0  -0.02
Li     1  0.2036550000000  0.0644950000000  0.2500000000000 1.0  -0.02
O      2 -0.3319340000000  0.7968680000000  0.0942030000000 1.0   0.06
O      2 -0.0274780000000  0.1995810000000  0.0955070000000 1.0   0.04
O      2 -0.3319340000000 -0.7968680000000 -0.0942030000000 1.0   0.06
O      2 -0.0274780000000 -0.1995810000000 -0.0955070000000 1.0   0.04
O      2 -0.3319340000000 -0.7968680000000 -0.4057970000000 1.0   0.06
O      2 -0.0274780000000 -0.1995810000000 -0.4044930000000 1.0   0.04
O      2 -0.3319340000000  0.7968680000000  0.4057970000000 1.0   0.06
O      2 -0.0274780000000  0.1995810000000  0.4044930000000 1.0   0.04
F      3  0.1830750000000 -0.6441710000000 -0.2500000000000 1.0   0.10
F      3  0.1830750000000  0.6441710000000  0.2500000000000 1.0   0.10
S      4 -0.1805650000000  0.0000000000000 -0.0000000000000 1.0   0.02
S      4 -0.1805650000000  0.0000000000000 -0.5000000000000 1.0   0.02
Fe     5 -0.1529730000000  0.5427180000000  0.2500000000000 1.0   3.72
Fe     5 -0.1529730000000 -0.5427180000000 -0.2500000000000 1.0   3.72
END
