TITL 2LiFeSO4F-200818-201958-951137 -0.0459 212.845937 -7.55802628E+003 6.03720 6.96668 16 (P21/m) n - 1
REM
REM Run started: Tue, 18 Aug 2020 22:55:24 +0100 in /scratch/scratch/uccabz1/launch_tmp/launcher_2020-08-18-19-19-56-253844
REM CASTEP 19.11| from code version Version unavailable
REM Functional Perdew Burke Ernzerhof Relativity Koelling-Harmon Dispersion off
REM Cut-off 340.0000 eV Grid scale 1.7500 Gmax 16.5316 1/A FBSC none
REM MP grid 5 3 2 Offset 0.000 0.000 0.000 No. kpts 10 Spacing 0.07
REM Total runtime: 9737.47 s
REM Overall efficiency: 95.0909 %
REM
REM 2LiFeSO4F.cell (6abdf011d38848201efe8211ff585b1c)
REM
REM compiler GCC version 4.9.2
REM options -cpp -iprefix /scratch/UCL/applications/gcc/4.9.2/bin/../lib/gcc/x86_64-unknown-linux-gnu/4.9.2/ -mtune=corei7 -march=x86-64 -g -O2
REM COMMAND_LINE
REM seed -1374237400 1895542142 745009141 -2022832465 1290685585 1700835718 586941557 -701295656 -1202513628 -465934840 -502471168 -1560283136
REM
REM S 3|1.8|5|6|7|30:31:32(qc=5)
REM O 2|1.5|12|13|15|20:21(qc=5)
REM Li 1|1.3|8|9|10|10U:20(qc=5)
REM Fe 3|2.2|2.0|1.0|8|9|10|40:41:32(qc=5)
REM F 2|1.6|10|12|13|20:21(qc=5)
REM 
CELL 1.54180    3.25632    6.12004   10.69079   90.00000   92.53598   90.00000
LATT -1
SFAC Li O  F  S  Fe 
Li     1 -0.1383120000000  0.2500000000000  0.0379420000000 1.0   0.00
Li     1  0.1383120000000 -0.2500000000000 -0.0379420000000 1.0   0.00
O      2 -0.4225730000000 -0.1346030000000  0.3875920000000 1.0   0.03
O      2 -0.0346510000000  0.0516570000000  0.1947680000000 1.0   0.03
O      2  0.4225730000000 -0.6346030000000 -0.3875920000000 1.0   0.03
O      2  0.0346510000000 -0.4483430000000 -0.1947680000000 1.0   0.03
O      2  0.4225730000000  0.1346030000000 -0.3875920000000 1.0   0.03
O      2  0.0346510000000 -0.0516570000000 -0.1947680000000 1.0   0.03
O      2 -0.4225730000000  0.6346030000000  0.3875920000000 1.0   0.03
O      2 -0.0346510000000  0.4483430000000  0.1947680000000 1.0   0.03
F      3 -0.3594180000000 -0.2500000000000  0.0506370000000 1.0   0.06
F      3  0.3594180000000  0.2500000000000 -0.0506370000000 1.0   0.06
S      4  0.0026820000000 -0.2500000000000 -0.2891540000000 1.0  -0.09
S      4 -0.0026820000000  0.2500000000000  0.2891540000000 1.0  -0.09
Fe     5  0.2504390000000  0.2500000000000 -0.2416330000000 1.0   2.91
Fe     5 -0.2504390000000 -0.2500000000000  0.2416330000000 1.0   2.91
END
