TITL 2LiFeSO4F-200804-020130-e8709c -0.0044 222.870970 -7.55905895E+003 4.21051 4.67436 16 (Pmc21) n - 1
REM
REM Run started: Tue, 04 Aug 2020 03:05:36 +0100 in /lustre/scratch/uccabz1/launch_tmp/launcher_2020-08-04-01-01-29-017739
REM CASTEP 20.1 from code version af48c487+ pr-geom-scf-spinfix Tue Jun 2 15:39:59 2020 +0100
REM Functional Perdew Burke Ernzerhof Relativity Koelling-Harmon Dispersion off
REM Cut-off 340.0000 eV Grid scale 1.7500 Gmax 16.5316 1/A FBSC none
REM MP grid 4 3 2 Offset 0.000 0.000 0.000 No. kpts 4 Spacing 0.07
REM Total runtime: 4243.37 s
REM Overall efficiency: 76.2 %
REM
REM 2LiFeSO4F.cell (6abdf011d38848201efe8211ff585b1c)
REM
REM compiler GCC version 4.9.2
REM options -cpp -iprefix /lustre/shared/ucl/apps/gcc/4.9.2/bin/../lib/gcc/x86_64-unknown-linux-gnu/4.9.2/ -mtune=corei7 -march=x86-64 -g -Og
REM COMMAND_LINE
REM seed -118119190 -856075508 -163735538 453741919 1331548250 -2066848995 -553694209 431238688 -717620620 -1214817990 1136444650 2000676108
REM
REM S 3|1.8|5|6|7|30:31:32(qc=5)
REM O 2|1.5|12|13|15|20:21(qc=5)
REM Li 1|1.3|8|9|10|10U:20(qc=5)
REM Fe 3|2.2|2.0|1.0|8|9|10|40:41:32(qc=5)
REM F 2|1.6|10|12|13|20:21(qc=5)
REM 
CELL 1.54180    3.58911    7.05070    8.80714   90.00000   90.00000   90.00000
LATT -1
SFAC Li O  F  S  Fe 
Li     1 -0.5690540000000  0.0000000000000  0.1666940000000 1.0  -0.00
Li     1  0.5690540000000  0.0000000000000 -0.3333060000000 1.0  -0.00
O      2 -0.8271300000000  0.3394400000000  0.3652680000000 1.0   0.03
O      2 -0.4822850000000  0.3401270000000  0.5874800000000 1.0   0.09
O      2  0.8271300000000 -0.3394400000000 -0.1347320000000 1.0   0.03
O      2  0.4822850000000 -0.3401270000000  0.0874800000000 1.0   0.09
O      2  0.8271300000000  0.3394400000000 -0.1347320000000 1.0   0.03
O      2  0.4822850000000  0.3401270000000  0.0874800000000 1.0   0.09
O      2 -0.8271300000000 -0.3394400000000  0.3652680000000 1.0   0.03
O      2 -0.4822850000000 -0.3401270000000  0.5874800000000 1.0   0.09
F      3  0.0671430000000  0.0000000000000 -0.3261210000000 1.0   0.01
F      3 -0.0671430000000  0.0000000000000  0.1738790000000 1.0   0.01
S      4 -0.2505650000000 -0.5000000000000 -0.0046550000000 1.0  -0.05
S      4  0.2505650000000  0.5000000000000  0.4953450000000 1.0  -0.05
Fe     5 -0.1971750000000 -0.5000000000000 -0.3029390000000 1.0   1.91
Fe     5  0.1971750000000 -0.5000000000000  0.1970610000000 1.0   1.91
END
