TITL 2LiFeSO4F-200818-184911-46f6e6 -0.0505 201.398929 -7.56420624E+003 7.99984 8.09480 16 (Cc) n - 1
REM
REM Run started: Tue, 18 Aug 2020 20:32:30 +0100 in /lustre/scratch/uccabz1/launch_tmp/launcher_2020-08-18-17-49-06-070993
REM CASTEP 20.1 from code version af48c487+ pr-geom-scf-spinfix Tue Jun 2 15:39:59 2020 +0100
REM Functional Perdew Burke Ernzerhof Relativity Koelling-Harmon Dispersion off
REM Cut-off 340.0000 eV Grid scale 1.7500 Gmax 16.5316 1/A FBSC none
REM MP grid 4 3 2 Offset 0.000 0.000 0.000 No. kpts 12 Spacing 0.07
REM Total runtime: 6261.44 s
REM Overall efficiency: 74.8889 %
REM
REM 2LiFeSO4F.cell (6abdf011d38848201efe8211ff585b1c)
REM
REM compiler GCC version 4.9.2
REM options -cpp -iprefix /lustre/shared/ucl/apps/gcc/4.9.2/bin/../lib/gcc/x86_64-unknown-linux-gnu/4.9.2/ -mtune=corei7 -march=x86-64 -g -Og
REM COMMAND_LINE
REM seed -610315085 -1556569938 -1344189128 1730146292 -1409478609 886908713 155710377 1162577324 1922730359 588429341 -390776336 -888976074
REM
REM S 3|1.8|5|6|7|30:31:32(qc=5)
REM O 2|1.5|12|13|15|20:21(qc=5)
REM Li 1|1.3|8|9|10|10U:20(qc=5)
REM Fe 3|2.2|2.0|1.0|8|9|10|40:41:32(qc=5)
REM F 2|1.6|10|12|13|20:21(qc=5)
REM 
CELL 1.54180    4.98384    5.76010    7.78144   90.00620   90.01432   64.36617
LATT -1
SFAC Li O  F  S  Fe 
Li     1 -0.1182200000000  0.2335220000000 -0.1980310000000 1.0  -0.03
Li     1 -0.3846970000000 -0.2335220000000  0.3019690000000 1.0  -0.03
O      2  0.0028490000000 -0.2051850000000 -0.6588490000000 1.0   0.04
O      2 -0.1755980000000  0.0898560000000 -0.4068980000000 1.0   0.01
O      2  0.3153670000000 -0.0125670000000 -0.5349450000000 1.0   0.03
O      2  0.2239390000000 -0.3553610000000 -0.3826400000000 1.0   0.06
O      2  0.2976640000000  0.2051850000000 -0.1588490000000 1.0   0.04
O      2  0.4142590000000 -0.0898560000000  0.0931020000000 1.0   0.01
O      2  0.8028000000000  0.0125670000000 -0.0349450000000 1.0   0.03
O      2  0.3685780000000  0.3553610000000  0.1173600000000 1.0   0.06
F      3 -0.1916100000000  0.4261740000000  0.3358250000000 1.0   0.14
F      3 -0.2654360000000 -0.4261740000000 -0.1641750000000 1.0   0.14
S      4  0.0837820000000 -0.1097600000000 -0.4942070000000 1.0   0.01
S      4  0.4740220000000  0.1097600000000  0.0057930000000 1.0   0.01
Fe     5  0.0843900000000 -0.3760550000000 -0.1308440000000 1.0   3.74
Fe     5  0.2083350000000  0.3760550000000  0.3691560000000 1.0   3.74
END
