TITL 2LiFeSO4F-200818-181904-b9e969 0.0255 286.494123 -7.56536818E+003 8.00000 8.12866 16 (P-1) n - 1
REM
REM Run started: Tue, 18 Aug 2020 22:39:50 +0100 in /lustre/scratch/uccabz1/launch_tmp/launcher_2020-08-18-17-19-02-900463
REM CASTEP 20.1 from code version af48c487+ pr-geom-scf-spinfix Tue Jun 2 15:39:59 2020 +0100
REM Functional Perdew Burke Ernzerhof Relativity Koelling-Harmon Dispersion off
REM Cut-off 340.0000 eV Grid scale 1.7500 Gmax 16.5316 1/A FBSC none
REM MP grid 3 3 3 Offset 0.000 0.000 0.000 No. kpts 14 Spacing 0.07
REM Total runtime: 17887.6 s
REM Overall efficiency: 95.8333 %
REM
REM 2LiFeSO4F.cell (6abdf011d38848201efe8211ff585b1c)
REM
REM compiler GCC version 4.9.2
REM options -cpp -iprefix /lustre/shared/ucl/apps/gcc/4.9.2/bin/../lib/gcc/x86_64-unknown-linux-gnu/4.9.2/ -mtune=corei7 -march=x86-64 -g -Og
REM COMMAND_LINE
REM seed 401422494 1932746506 -871909530 1586643961 -1837454391 929561553 -722880213 350780439 1126100216 -1881213800 -1599964680 -1395736734
REM
REM S 3|1.8|5|6|7|30:31:32(qc=5)
REM O 2|1.5|12|13|15|20:21(qc=5)
REM Li 1|1.3|8|9|10|10U:20(qc=5)
REM Fe 3|2.2|2.0|1.0|8|9|10|40:41:32(qc=5)
REM F 2|1.6|10|12|13|20:21(qc=5)
REM 
CELL 1.54180    6.18250    7.42837    7.28316   73.80249   65.70475   93.74757
LATT -1
SFAC Li O  F  S  Fe 
Li     1 -0.1436960000000 -0.2662800000000 -0.4625990000000 1.0  -0.01
Li     1  0.1436960000000  0.2662800000000  0.4625990000000 1.0  -0.01
O      2  0.2108680000000 -0.4917040000000  0.2688980000000 1.0   0.02
O      2  0.1901180000000 -0.1769270000000  0.3258880000000 1.0   0.06
O      2  0.2862090000000 -0.2072740000000 -0.0302730000000 1.0   0.09
O      2  0.5807140000000 -0.2347520000000  0.1232480000000 1.0   0.06
O      2 -0.2108680000000  0.4917040000000 -0.2688980000000 1.0   0.02
O      2 -0.1901180000000  0.1769270000000 -0.3258880000000 1.0   0.06
O      2 -0.2862090000000  0.2072740000000  0.0302730000000 1.0   0.09
O      2 -0.5807140000000  0.2347520000000 -0.1232480000000 1.0   0.06
F      3  0.6315790000000 -0.1291180000000 -0.4957640000000 1.0   0.09
F      3 -0.6315790000000  0.1291180000000  0.4957640000000 1.0   0.09
S      4  0.3183660000000 -0.2855790000000  0.1711710000000 1.0   0.01
S      4 -0.3183660000000  0.2855790000000 -0.1711710000000 1.0   0.01
Fe     5  0.4761600000000  0.0207120000000 -0.2765490000000 1.0   3.69
Fe     5 -0.4761600000000 -0.0207120000000  0.2765490000000 1.0   3.69
END
