TITL 2LiFeSO4F-200818-211947-5e743b 0.1332 245.916672 -7.56569676E+003 8.00000 8.10872 16 (Cc) n - 1
REM
REM Run started: Tue, 18 Aug 2020 23:34:04 +0100 in /lustre/scratch/uccabz1/launch_tmp/launcher_2020-08-18-20-19-44-678740
REM CASTEP 20.1 from code version af48c487+ pr-geom-scf-spinfix Tue Jun 2 15:39:59 2020 +0100
REM Functional Perdew Burke Ernzerhof Relativity Koelling-Harmon Dispersion off
REM Cut-off 340.0000 eV Grid scale 1.7500 Gmax 16.5316 1/A FBSC none
REM MP grid 4 4 2 Offset 0.000 0.000 0.000 No. kpts 10 Spacing 0.07
REM Total runtime: 9371.79 s
REM Overall efficiency: 88.0833 %
REM
REM 2LiFeSO4F.cell (6abdf011d38848201efe8211ff585b1c)
REM
REM compiler GCC version 4.9.2
REM options -cpp -iprefix /lustre/shared/ucl/apps/gcc/4.9.2/bin/../lib/gcc/x86_64-unknown-linux-gnu/4.9.2/ -mtune=corei7 -march=x86-64 -g -Og
REM COMMAND_LINE
REM seed -531502925 -1859146415 848642735 1263901537 -1546890035 -899468803 -1009343585 1843593420 -1543564010 1135412794 -1804069726 94683626
REM
REM S 3|1.8|5|6|7|30:31:32(qc=5)
REM O 2|1.5|12|13|15|20:21(qc=5)
REM Li 1|1.3|8|9|10|10U:20(qc=5)
REM Fe 3|2.2|2.0|1.0|8|9|10|40:41:32(qc=5)
REM F 2|1.6|10|12|13|20:21(qc=5)
REM 
CELL 1.54180    5.09929    5.09929   11.00817   71.27283   71.27283   68.85570
LATT -1
SFAC Li O  F  S  Fe 
Li     1 -0.2296610000000 -0.6054860000000 -0.2484590000000 1.0  -0.02
Li     1 -0.6054860000000 -0.2296610000000  0.2515410000000 1.0  -0.02
O      2 -0.4111100000000  0.1323800000000 -0.0863230000000 1.0   0.05
O      2 -0.0089170000000 -0.2969820000000 -0.0497030000000 1.0   0.06
O      2 -0.3510390000000 -0.2821590000000 -0.1702470000000 1.0   0.02
O      2 -0.5033760000000 -0.3238510000000  0.0678710000000 1.0   0.05
O      2  0.1323800000000 -0.4111100000000  0.4136770000000 1.0   0.05
O      2 -0.2969820000000 -0.0089170000000  0.4502970000000 1.0   0.06
O      2 -0.2821590000000 -0.3510390000000  0.3297530000000 1.0   0.02
O      2 -0.3238510000000 -0.5033760000000  0.5678710000000 1.0   0.05
F      3  0.1490820000000  0.2675420000000 -0.3039920000000 1.0   0.12
F      3  0.2675420000000  0.1490820000000  0.1960080000000 1.0   0.12
S      4 -0.3174360000000 -0.1955730000000 -0.0613120000000 1.0   0.01
S      4 -0.1955730000000 -0.3174360000000  0.4386880000000 1.0   0.01
Fe     5  0.3013500000000  0.4121410000000  0.0315010000000 1.0   3.71
Fe     5  0.4121410000000  0.3013500000000 -0.4684990000000 1.0   3.71
END
