TITL 2LiFeSO4F-200804-015003-b417c4 -0.0551 265.036581 -7.56571025E+003 8.00000 8.14892 16 (P-1) n - 1
REM
REM Run started: Tue, 04 Aug 2020 04:44:11 +0100 in /lustre/scratch/uccabz1/launch_tmp/launcher_2020-08-04-00-49-55-368422
REM CASTEP 20.1 from code version af48c487+ pr-geom-scf-spinfix Tue Jun 2 15:39:59 2020 +0100
REM Functional Perdew Burke Ernzerhof Relativity Koelling-Harmon Dispersion off
REM Cut-off 340.0000 eV Grid scale 1.7500 Gmax 16.5316 1/A FBSC none
REM MP grid 3 3 2 Offset 0.000 0.000 0.000 No. kpts 9 Spacing 0.07
REM Total runtime: 11771.2 s
REM Overall efficiency: 83.5833 %
REM
REM 2LiFeSO4F.cell (6abdf011d38848201efe8211ff585b1c)
REM
REM compiler GCC version 4.9.2
REM options -cpp -iprefix /lustre/shared/ucl/apps/gcc/4.9.2/bin/../lib/gcc/x86_64-unknown-linux-gnu/4.9.2/ -mtune=corei7 -march=x86-64 -g -Og
REM COMMAND_LINE
REM seed -2043062684 429675776 -837830879 1267719470 -1856838140 -314292897 -271469909 -1682548380 2012064685 -1314904276 139289799 717523782
REM
REM S 3|1.8|5|6|7|30:31:32(qc=5)
REM O 2|1.5|12|13|15|20:21(qc=5)
REM Li 1|1.3|8|9|10|10U:20(qc=5)
REM Fe 3|2.2|2.0|1.0|8|9|10|40:41:32(qc=5)
REM F 2|1.6|10|12|13|20:21(qc=5)
REM 
CELL 1.54180    5.47296    5.86637    9.11190   86.06817  114.38164   87.59602
LATT -1
SFAC Li O  F  S  Fe 
Li     1 -0.1310830000000 -0.1427500000000  0.3979160000000 1.0  -0.01
Li     1  0.1310830000000  0.1427500000000 -0.3979160000000 1.0  -0.01
O      2  0.0566810000000 -0.1380750000000  0.2362120000000 1.0   0.06
O      2  0.1933640000000 -0.5300990000000  0.2087840000000 1.0   0.07
O      2  0.5375830000000 -0.2675300000000  0.3365030000000 1.0   0.02
O      2  0.2610780000000 -0.2075430000000  0.0458020000000 1.0   0.08
O      2 -0.0566810000000  0.1380750000000 -0.2362120000000 1.0   0.06
O      2 -0.1933640000000  0.5300990000000 -0.2087840000000 1.0   0.07
O      2 -0.5375830000000  0.2675300000000 -0.3365030000000 1.0   0.02
O      2 -0.2610780000000  0.2075430000000 -0.0458020000000 1.0   0.08
F      3  0.0906750000000 -0.1809840000000 -0.3820760000000 1.0   0.08
F      3 -0.0906750000000  0.1809840000000  0.3820760000000 1.0   0.08
S      4  0.2671940000000 -0.2870030000000  0.2091350000000 1.0   0.02
S      4 -0.2671940000000  0.2870030000000 -0.2091350000000 1.0   0.02
Fe     5  0.0327460000000 -0.2119360000000 -0.1854660000000 1.0   3.68
Fe     5 -0.0327460000000  0.2119360000000  0.1854660000000 1.0   3.68
END
