TITL 2LiFeSO4F-200804-044104-78bcbc -0.0008 246.705259 -7.56571675E+003 8.00000 8.11738 16 (P21) n - 1
REM
REM Run started: Tue, 04 Aug 2020 06:11:13 +0100 in /lustre/scratch/uccabz1/launch_tmp/launcher_2020-08-04-03-40-53-961830
REM CASTEP 20.1 from code version af48c487+ pr-geom-scf-spinfix Tue Jun 2 15:39:59 2020 +0100
REM Functional Perdew Burke Ernzerhof Relativity Koelling-Harmon Dispersion off
REM Cut-off 340.0000 eV Grid scale 1.7500 Gmax 16.5316 1/A FBSC none
REM MP grid 3 3 2 Offset 0.000 0.000 0.000 No. kpts 5 Spacing 0.07
REM Total runtime: 6053.19 s
REM Overall efficiency: 78.8333 %
REM
REM 2LiFeSO4F.cell (6abdf011d38848201efe8211ff585b1c)
REM
REM compiler GCC version 4.9.2
REM options -cpp -iprefix /lustre/shared/ucl/apps/gcc/4.9.2/bin/../lib/gcc/x86_64-unknown-linux-gnu/4.9.2/ -mtune=corei7 -march=x86-64 -g -Og
REM COMMAND_LINE
REM seed -1599977649 -1223450872 -812904918 -1451598972 -1470786033 236320048 -141786900 -1935067917 -613759492 -933313156 387206991 1993616296
REM
REM S 3|1.8|5|6|7|30:31:32(qc=5)
REM O 2|1.5|12|13|15|20:21(qc=5)
REM Li 1|1.3|8|9|10|10U:20(qc=5)
REM Fe 3|2.2|2.0|1.0|8|9|10|40:41:32(qc=5)
REM F 2|1.6|10|12|13|20:21(qc=5)
REM 
CELL 1.54180    4.97048    5.22419    9.80872   90.00000   90.00000   75.60606
LATT -1
SFAC Li O  F  S  Fe 
Li     1  0.0944460000000  0.0556020000000 -0.2214110000000 1.0  -0.01
Li     1 -0.0944460000000 -0.0556020000000  0.2785890000000 1.0  -0.01
O      2 -0.1163210000000  0.6587270000000  0.1221920000000 1.0   0.06
O      2  0.0760640000000  0.1930740000000  0.1982750000000 1.0   0.01
O      2  0.1917890000000  0.5771320000000  0.3129650000000 1.0   0.05
O      2  0.3755040000000  0.4288380000000  0.0824750000000 1.0   0.05
O      2  0.1163210000000 -0.6587270000000 -0.3778080000000 1.0   0.06
O      2 -0.0760640000000 -0.1930740000000 -0.3017250000000 1.0   0.01
O      2 -0.1917890000000 -0.5771320000000 -0.1870350000000 1.0   0.05
O      2 -0.3755040000000 -0.4288380000000 -0.4175250000000 1.0   0.05
F      3 -0.6418620000000 -0.0842510000000 -0.1064360000000 1.0   0.12
F      3  0.6418620000000  0.0842510000000  0.3935640000000 1.0   0.12
S      4  0.1355010000000  0.4524300000000  0.1777100000000 1.0   0.01
S      4 -0.1355010000000 -0.4524300000000 -0.3222900000000 1.0   0.01
Fe     5 -0.6064640000000 -0.6301630000000  0.4762330000000 1.0   3.71
Fe     5  0.6064640000000  0.6301630000000 -0.0237670000000 1.0   3.71
END
