TITL 2LiFeSO4F-200818-235631-12c68e 0.0447 204.691027 -7.56567700E+003 8.00000 8.08590 16 (Cc) n - 1
REM
REM Run started: Wed, 19 Aug 2020 03:22:59 +0100 in /lustre/scratch/uccabz1/launch_tmp/launcher_2020-08-18-22-56-29-807537
REM CASTEP 20.1 from code version af48c487+ pr-geom-scf-spinfix Tue Jun 2 15:39:59 2020 +0100
REM Functional Perdew Burke Ernzerhof Relativity Koelling-Harmon Dispersion off
REM Cut-off 340.0000 eV Grid scale 1.7500 Gmax 16.5316 1/A FBSC none
REM MP grid 4 3 3 Offset 0.000 0.000 0.000 No. kpts 18 Spacing 0.07
REM Total runtime: 13502 s
REM Overall efficiency: 95.5385 %
REM
REM 2LiFeSO4F.cell (6abdf011d38848201efe8211ff585b1c)
REM
REM compiler GCC version 4.9.2
REM options -cpp -iprefix /lustre/shared/ucl/apps/gcc/4.9.2/bin/../lib/gcc/x86_64-unknown-linux-gnu/4.9.2/ -mtune=corei7 -march=x86-64 -g -Og
REM COMMAND_LINE
REM seed 1275709573 1408918565 1505709339 -276644537 -1753565927 -1906903820 1232179577 -1949388802 46081031 884765291 1302870082 1407366231
REM
REM S 3|1.8|5|6|7|30:31:32(qc=5)
REM O 2|1.5|12|13|15|20:21(qc=5)
REM Li 1|1.3|8|9|10|10U:20(qc=5)
REM Fe 3|2.2|2.0|1.0|8|9|10|40:41:32(qc=5)
REM F 2|1.6|10|12|13|20:21(qc=5)
REM 
CELL 1.54180    5.12030    7.24744    6.91575  117.34253  106.17976  100.06118
LATT -1
SFAC Li O  F  S  Fe 
Li     1 -0.5664760000000  0.1733400000000 -0.3205900000000 1.0  -0.02
Li     1 -0.2458850000000 -0.0060700000000  0.3205900000000 1.0  -0.02
O      2 -0.1863900000000  0.4130860000000 -0.1101340000000 1.0   0.04
O      2  0.3124940000000  0.6294520000000  0.0341770000000 1.0   0.07
O      2 -0.0438430000000  0.5791220000000 -0.3301720000000 1.0   0.06
O      2  0.0858590000000  0.2646530000000 -0.3546940000000 1.0   0.01
O      2 -0.0762550000000  0.0232200000000  0.1101340000000 1.0   0.04
O      2  0.2783170000000  0.0952750000000 -0.0341770000000 1.0   0.07
O      2  0.2863290000000  0.4092940000000  0.3301720000000 1.0   0.06
O      2  0.4405530000000  0.1193470000000  0.3546940000000 1.0   0.01
F      3  0.5135240000000 -0.1060210000000 -0.4029890000000 1.0   0.10
F      3 -0.0834870000000 -0.2030320000000  0.4029890000000 1.0   0.10
S      4  0.0415860000000  0.4694070000000 -0.1955120000000 1.0   0.01
S      4  0.2370980000000  0.1649200000000  0.1955120000000 1.0   0.01
Fe     5 -0.1293880000000 -0.1483810000000 -0.2741880000000 1.0   3.71
Fe     5  0.1448000000000 -0.3741930000000  0.2741880000000 1.0   3.71
END
