TITL 2LiFeSO4F-200818-212233-9ad9fb 0.0299 271.759189 -7.56554593E+003 8.00000 8.11759 16 (P21) n - 1
REM
REM Run started: Tue, 18 Aug 2020 23:39:36 +0100 in /scratch/scratch/uccabz1/launch_tmp/launcher_2020-08-18-20-22-31-759347
REM CASTEP 19.11| from code version Version unavailable
REM Functional Perdew Burke Ernzerhof Relativity Koelling-Harmon Dispersion off
REM Cut-off 340.0000 eV Grid scale 1.7500 Gmax 16.5316 1/A FBSC none
REM MP grid 4 4 2 Offset 0.000 0.000 0.000 No. kpts 8 Spacing 0.07
REM Total runtime: 9351.02 s
REM Overall efficiency: 89.75 %
REM
REM 2LiFeSO4F.cell (6abdf011d38848201efe8211ff585b1c)
REM
REM compiler GCC version 4.9.2
REM options -cpp -iprefix /scratch/UCL/applications/gcc/4.9.2/bin/../lib/gcc/x86_64-unknown-linux-gnu/4.9.2/ -mtune=corei7 -march=x86-64 -g -O2
REM COMMAND_LINE
REM seed -1333553653 347863644 673490704 -976258108 1053779355 1607606180 -295493369 1764813953 -2090969706 1476691420 -1566123990 -1931762443
REM
REM S 3|1.8|5|6|7|30:31:32(qc=5)
REM O 2|1.5|12|13|15|20:21(qc=5)
REM Li 1|1.3|8|9|10|10U:20(qc=5)
REM Fe 3|2.2|2.0|1.0|8|9|10|40:41:32(qc=5)
REM F 2|1.6|10|12|13|20:21(qc=5)
REM 
CELL 1.54180    5.13241    4.72683   12.09942   90.00000   90.00000  112.20722
LATT -1
SFAC Li O  F  S  Fe 
Li     1  0.2440180000000 -0.0572230000000  0.3998090000000 1.0  -0.02
Li     1 -0.2440180000000  0.0572230000000 -0.1001910000000 1.0  -0.02
O      2 -0.7702640000000  0.1727590000000 -0.4641630000000 1.0   0.06
O      2 -0.6945350000000  0.6306290000000 -0.3507570000000 1.0   0.06
O      2 -0.5795260000000  0.6760820000000 -0.5515660000000 1.0   0.01
O      2 -0.2933520000000  0.5201160000000 -0.4175290000000 1.0   0.05
O      2  0.7702640000000 -0.1727590000000  0.0358370000000 1.0   0.06
O      2  0.6945350000000 -0.6306290000000  0.1492430000000 1.0   0.06
O      2  0.5795260000000 -0.6760820000000 -0.0515660000000 1.0   0.01
O      2  0.2933520000000 -0.5201160000000  0.0824710000000 1.0   0.05
F      3  0.1026450000000 -0.0047710000000  0.2720080000000 1.0   0.11
F      3 -0.1026450000000  0.0047710000000 -0.2279920000000 1.0   0.11
S      4 -0.5811300000000  0.5092500000000 -0.4476550000000 1.0   0.01
S      4  0.5811300000000 -0.5092500000000  0.0523450000000 1.0   0.01
Fe     5 -0.0441200000000  0.1530540000000  0.1554410000000 1.0   3.71
Fe     5  0.0441200000000 -0.1530540000000 -0.3445590000000 1.0   3.71
END
