TITL 2LiFeSO4F-200804-023115-b155cf 0.0182 196.848728 -7.56629410E+003 8.00000 8.12275 16 (P-1) n - 1
REM
REM Run started: Tue, 04 Aug 2020 06:49:16 +0100 in /lustre/scratch/uccabz1/launch_tmp/launcher_2020-08-04-01-31-13-151362
REM CASTEP 20.1 from code version af48c487+ pr-geom-scf-spinfix Tue Jun 2 15:39:59 2020 +0100
REM Functional Perdew Burke Ernzerhof Relativity Koelling-Harmon Dispersion off
REM Cut-off 340.0000 eV Grid scale 1.7500 Gmax 16.5316 1/A FBSC none
REM MP grid 3 3 3 Offset 0.000 0.000 0.000 No. kpts 14 Spacing 0.07
REM Total runtime: 16912.7 s
REM Overall efficiency: 95.625 %
REM
REM 2LiFeSO4F.cell (6abdf011d38848201efe8211ff585b1c)
REM
REM compiler GCC version 4.9.2
REM options -cpp -iprefix /lustre/shared/ucl/apps/gcc/4.9.2/bin/../lib/gcc/x86_64-unknown-linux-gnu/4.9.2/ -mtune=corei7 -march=x86-64 -g -Og
REM COMMAND_LINE
REM seed 1069493633 -1153214540 -1613692840 2132092660 1951903463 -1180682935 1791845252 -1413261374 1148688240 -761199956 -148940688 -1751729425
REM
REM S 3|1.8|5|6|7|30:31:32(qc=5)
REM O 2|1.5|12|13|15|20:21(qc=5)
REM Li 1|1.3|8|9|10|10U:20(qc=5)
REM Fe 3|2.2|2.0|1.0|8|9|10|40:41:32(qc=5)
REM F 2|1.6|10|12|13|20:21(qc=5)
REM 
CELL 1.54180    5.51014    5.49903    7.61588  110.20483  110.63878   95.00016
LATT -1
SFAC Li O  F  S  Fe 
Li     1  0.1459830000000  0.4970840000000 -0.2042040000000 1.0  -0.02
Li     1 -0.1459830000000 -0.4970840000000  0.2042040000000 1.0  -0.02
O      2  0.2024220000000  0.1742130000000  0.8708980000000 1.0   0.05
O      2  0.6768790000000  0.1990360000000  0.9258580000000 1.0   0.04
O      2  0.3503170000000  0.2731770000000  0.6408010000000 1.0   0.04
O      2  0.3269830000000 -0.1849190000000  0.6398710000000 1.0   0.03
O      2 -0.2024220000000 -0.1742130000000 -0.8708980000000 1.0   0.05
O      2 -0.6768790000000 -0.1990360000000 -0.9258580000000 1.0   0.04
O      2 -0.3503170000000 -0.2731770000000 -0.6408010000000 1.0   0.04
O      2 -0.3269830000000  0.1849190000000 -0.6398710000000 1.0   0.03
F      3  0.1485700000000  0.3604670000000  0.2607280000000 1.0   0.10
F      3 -0.1485700000000 -0.3604670000000 -0.2607280000000 1.0   0.10
S      4  0.3920740000000  0.1074010000000  0.7656690000000 1.0   0.02
S      4 -0.3920740000000 -0.1074010000000 -0.7656690000000 1.0   0.02
Fe     5  0.0000000000000  0.0000000000000  0.0000000000000 1.0   3.73
Fe     5  0.5000000000000  0.5000000000000  0.5000000000000 1.0   3.76
END
