TITL 2LiFeSO4F-200819-025318-f01928 0.0080 214.426794 -7.56518038E+003 7.99992 8.10150 16 (P21) n - 1
REM
REM Run started: Wed, 19 Aug 2020 04:59:32 +0100 in /lustre/scratch/uccabz1/launch_tmp/launcher_2020-08-19-01-53-16-716164
REM CASTEP 20.1 from code version af48c487+ pr-geom-scf-spinfix Tue Jun 2 15:39:59 2020 +0100
REM Functional Perdew Burke Ernzerhof Relativity Koelling-Harmon Dispersion off
REM Cut-off 340.0000 eV Grid scale 1.7500 Gmax 16.5316 1/A FBSC none
REM MP grid 4 3 3 Offset 0.000 0.000 0.000 No. kpts 12 Spacing 0.07
REM Total runtime: 7644.57 s
REM Overall efficiency: 69.9 %
REM
REM 2LiFeSO4F.cell (6abdf011d38848201efe8211ff585b1c)
REM
REM compiler GCC version 4.9.2
REM options -cpp -iprefix /lustre/shared/ucl/apps/gcc/4.9.2/bin/../lib/gcc/x86_64-unknown-linux-gnu/4.9.2/ -mtune=corei7 -march=x86-64 -g -Og
REM COMMAND_LINE
REM seed -203520595 -405342883 -360249919 -620101153 -91205364 -1847242447 -1444603351 -1478212730 404104049 -252584460 -870799400 542765289
REM
REM S 3|1.8|5|6|7|30:31:32(qc=5)
REM O 2|1.5|12|13|15|20:21(qc=5)
REM Li 1|1.3|8|9|10|10U:20(qc=5)
REM Fe 3|2.2|2.0|1.0|8|9|10|40:41:32(qc=5)
REM F 2|1.6|10|12|13|20:21(qc=5)
REM 
CELL 1.54180    4.83523    7.89577    6.76895   90.00000   90.00000  123.92725
LATT -1
SFAC Li O  F  S  Fe 
Li     1 -0.4488680000000 -0.2903020000000  0.0711490000000 1.0  -0.02
Li     1  0.4488680000000  0.2903020000000 -0.4288510000000 1.0  -0.02
O      2  0.1316950000000  0.2841310000000 -0.0160400000000 1.0   0.04
O      2 -0.3324540000000  0.2550450000000 -0.1871340000000 1.0   0.03
O      2 -0.0706580000000  0.0775260000000 -0.3245220000000 1.0   0.04
O      2  0.2280850000000  0.4379330000000 -0.3485710000000 1.0   0.03
O      2 -0.1316950000000 -0.2841310000000  0.4839600000000 1.0   0.04
O      2  0.3324540000000 -0.2550450000000  0.3128660000000 1.0   0.03
O      2  0.0706580000000 -0.0775260000000  0.1754780000000 1.0   0.04
O      2 -0.2280850000000 -0.4379330000000  0.1514290000000 1.0   0.03
F      3  0.4011530000000 -0.2248770000000 -0.1318310000000 1.0   0.12
F      3 -0.4011530000000  0.2248770000000  0.3681690000000 1.0   0.12
S      4 -0.0154040000000  0.2618480000000 -0.2185610000000 1.0   0.02
S      4  0.0154040000000 -0.2618480000000  0.2814390000000 1.0   0.02
Fe     5  0.4736720000000  0.2310090000000  0.1043670000000 1.0   3.74
Fe     5 -0.4736720000000 -0.2310090000000 -0.3956330000000 1.0   3.74
END
