TITL 2LiFeSO4F-200819-024001-3315bf -0.0422 210.369071 -7.56521766E+003 8.00000 8.09638 16 (Pc) n - 1
REM
REM Run started: Wed, 19 Aug 2020 03:42:00 +0100 in /lustre/scratch/uccabz1/launch_tmp/launcher_2020-08-19-01-39-57-999172
REM CASTEP 20.1 from code version af48c487+ pr-geom-scf-spinfix Tue Jun 2 15:39:59 2020 +0100
REM Functional Perdew Burke Ernzerhof Relativity Koelling-Harmon Dispersion off
REM Cut-off 340.0000 eV Grid scale 1.7500 Gmax 16.5316 1/A FBSC none
REM MP grid 3 3 3 Offset 0.000 0.000 0.000 No. kpts 10 Spacing 0.07
REM Total runtime: 4260.62 s
REM Overall efficiency: 82.1111 %
REM
REM 2LiFeSO4F.cell (6abdf011d38848201efe8211ff585b1c)
REM
REM compiler GCC version 4.9.2
REM options -cpp -iprefix /lustre/shared/ucl/apps/gcc/4.9.2/bin/../lib/gcc/x86_64-unknown-linux-gnu/4.9.2/ -mtune=corei7 -march=x86-64 -g -Og
REM COMMAND_LINE
REM seed 548690024 28330444 -409370669 1078016592 -406475388 -148838378 483558364 799988456 1592654530 -1535574908 143039437 -1063565199
REM
REM S 3|1.8|5|6|7|30:31:32(qc=5)
REM O 2|1.5|12|13|15|20:21(qc=5)
REM Li 1|1.3|8|9|10|10U:20(qc=5)
REM Fe 3|2.2|2.0|1.0|8|9|10|40:41:32(qc=5)
REM F 2|1.6|10|12|13|20:21(qc=5)
REM 
CELL 1.54180    5.10489    5.89591    7.78625  116.14669   90.00000   90.00000
LATT -1
SFAC Li O  F  S  Fe 
Li     1  0.1180410000000 -0.5314870000000 -0.3186760000000 1.0  -0.03
Li     1 -0.1180410000000 -0.5314870000000  0.1813240000000 1.0  -0.03
O      2  0.1779280000000  0.5156760000000 -0.0609500000000 1.0   0.04
O      2  0.5942490000000  0.3591790000000  0.0075300000000 1.0   0.02
O      2  0.3090850000000  0.0774970000000 -0.2538090000000 1.0   0.06
O      2  0.1683800000000  0.2218790000000  0.0831490000000 1.0   0.05
O      2 -0.1779280000000  0.5156760000000  0.4390500000000 1.0   0.04
O      2 -0.5942490000000  0.3591790000000  0.5075300000000 1.0   0.02
O      2 -0.3090850000000  0.0774970000000  0.2461910000000 1.0   0.06
O      2 -0.1683800000000  0.2218790000000  0.5831490000000 1.0   0.05
F      3  0.0624710000000 -0.2073970000000  0.3022870000000 1.0   0.10
F      3 -0.0624710000000 -0.2073970000000 -0.1977130000000 1.0   0.10
S      4  0.3219440000000  0.2920410000000 -0.0552960000000 1.0   0.01
S      4 -0.3219440000000  0.2920410000000  0.4447040000000 1.0   0.01
Fe     5  0.0210470000000 -0.1052720000000  0.0831090000000 1.0   3.76
Fe     5 -0.0210470000000 -0.1052720000000 -0.4168910000000 1.0   3.76
END
