TITL 2LiFeSO4F-200819-030350-eff7dc -0.0026 187.330443 -7.56482022E+003 8.00000 8.08818 16 (Cc) n - 1
REM
REM Run started: Wed, 19 Aug 2020 03:58:23 +0100 in /lustre/scratch/uccabz1/launch_tmp/launcher_2020-08-19-02-03-48-004439
REM CASTEP 20.1 from code version af48c487+ pr-geom-scf-spinfix Tue Jun 2 15:39:59 2020 +0100
REM Functional Perdew Burke Ernzerhof Relativity Koelling-Harmon Dispersion off
REM Cut-off 340.0000 eV Grid scale 1.7500 Gmax 16.5316 1/A FBSC none
REM MP grid 4 4 2 Offset 0.000 0.000 0.000 No. kpts 16 Spacing 0.07
REM Total runtime: 3535.79 s
REM Overall efficiency: 93.8333 %
REM
REM 2LiFeSO4F.cell (6abdf011d38848201efe8211ff585b1c)
REM
REM compiler GCC version 4.9.2
REM options -cpp -iprefix /lustre/shared/ucl/apps/gcc/4.9.2/bin/../lib/gcc/x86_64-unknown-linux-gnu/4.9.2/ -mtune=corei7 -march=x86-64 -g -Og
REM COMMAND_LINE
REM seed 566836536 1442903158 -514433547 1790706906 874369261 245100540 2027352696 -399887028 -1400857457 -1076635264 2109221724 1848555136
REM
REM S 3|1.8|5|6|7|30:31:32(qc=5)
REM O 2|1.5|12|13|15|20:21(qc=5)
REM Li 1|1.3|8|9|10|10U:20(qc=5)
REM Fe 3|2.2|2.0|1.0|8|9|10|40:41:32(qc=5)
REM F 2|1.6|10|12|13|20:21(qc=5)
REM 
CELL 1.54180    4.41148    4.98346    9.59529   97.14561   90.00000  116.27067
LATT -1
SFAC Li O  F  S  Fe 
Li     1 -0.0920430000000  0.3241680000000 -0.1413500000000 1.0  -0.03
Li     1 -0.0837880000000  0.3241680000000  0.3586500000000 1.0  -0.03
O      2 -0.1054030000000 -0.2581910000000  0.3654290000000 1.0   0.03
O      2 -0.6583710000000 -0.6105020000000  0.2472990000000 1.0   0.03
O      2 -0.1570800000000 -0.4033880000000  0.1093930000000 1.0   0.06
O      2 -0.3971510000000 -0.0679590000000  0.2127830000000 1.0   0.04
O      2  0.3472120000000 -0.2581910000000 -0.1345710000000 1.0   0.03
O      2  0.5478690000000 -0.6105020000000 -0.2527010000000 1.0   0.03
O      2  0.2536910000000 -0.4033880000000 -0.3906070000000 1.0   0.06
O      2  0.8291920000000 -0.0679590000000 -0.2872170000000 1.0   0.04
F      3 -0.4154690000000  0.1639020000000  0.4802050000000 1.0   0.13
F      3  0.0793720000000  0.1639020000000 -0.0197950000000 1.0   0.13
S      4 -0.3337070000000 -0.3365420000000  0.2348820000000 1.0   0.01
S      4  0.4971650000000 -0.3365420000000 -0.2651180000000 1.0   0.01
Fe     5  0.2988750000000 -0.0153600000000  0.0713310000000 1.0   3.74
Fe     5  0.1857650000000 -0.0153600000000 -0.4286690000000 1.0   3.74
END
