TITL 2LiFeSO4F-200818-201642-fe042e -0.0188 255.733330 -7.56551369E+003 8.00000 8.10351 16 (Cc) n - 1
REM
REM Run started: Tue, 18 Aug 2020 23:47:03 +0100 in /lustre/scratch/uccabz1/launch_tmp/launcher_2020-08-18-19-16-37-303300
REM CASTEP 20.1 from code version af48c487+ pr-geom-scf-spinfix Tue Jun 2 15:39:59 2020 +0100
REM Functional Perdew Burke Ernzerhof Relativity Koelling-Harmon Dispersion off
REM Cut-off 340.0000 eV Grid scale 1.7500 Gmax 16.5316 1/A FBSC none
REM MP grid 4 3 3 Offset 0.000 0.000 0.000 No. kpts 12 Spacing 0.07
REM Total runtime: 12757.1 s
REM Overall efficiency: 70.9091 %
REM
REM 2LiFeSO4F.cell (6abdf011d38848201efe8211ff585b1c)
REM
REM compiler GCC version 4.9.2
REM options -cpp -iprefix /lustre/shared/ucl/apps/gcc/4.9.2/bin/../lib/gcc/x86_64-unknown-linux-gnu/4.9.2/ -mtune=corei7 -march=x86-64 -g -Og
REM COMMAND_LINE
REM seed 1756366515 1402915751 -1499321895 1697469556 1027798040 -2041369460 108128985 -831817426 340231143 -869564265 -503324109 2038460287
REM
REM S 3|1.8|5|6|7|30:31:32(qc=5)
REM O 2|1.5|12|13|15|20:21(qc=5)
REM Li 1|1.3|8|9|10|10U:20(qc=5)
REM Fe 3|2.2|2.0|1.0|8|9|10|40:41:32(qc=5)
REM F 2|1.6|10|12|13|20:21(qc=5)
REM 
CELL 1.54180    5.32595    8.38105    8.38105   90.06392   58.94852   58.94852
LATT -1
SFAC Li O  F  S  Fe 
Li     1 -0.3062720000000 -0.3357360000000  0.5187380000000 1.0  -0.03
Li     1  0.1937280000000  0.5187380000000 -0.3357360000000 1.0  -0.03
O      2 -0.5523300000000  0.0794390000000  0.3984940000000 1.0   0.07
O      2 -0.3606360000000  0.2082940000000  0.5398270000000 1.0   0.06
O      2  0.1084720000000 -0.1072950000000  0.2512220000000 1.0   0.08
O      2 -0.3136820000000 -0.1014570000000  0.5749350000000 1.0   0.02
O      2 -1.0523300000000  0.3984940000000  0.0794390000000 1.0   0.07
O      2 -0.8606360000000  0.5398270000000  0.2082940000000 1.0   0.06
O      2 -0.3915280000000  0.2512220000000 -0.1072950000000 1.0   0.08
O      2 -0.8136820000000  0.5749350000000 -0.1014570000000 1.0   0.02
F      3 -0.0998780000000  0.4919240000000 -0.3720280000000 1.0   0.07
F      3  0.4001220000000 -0.3720280000000  0.4919240000000 1.0   0.07
S      4 -0.2803180000000  0.0173460000000  0.4431900000000 1.0   0.01
S      4 -0.7803180000000  0.4431900000000  0.0173460000000 1.0   0.01
Fe     5 -0.0917680000000  0.2528000000000 -0.3807050000000 1.0   3.71
Fe     5  0.4082320000000 -0.3807050000000  0.2528000000000 1.0   3.71
END
