TITL 2LiFeSO4F-200804-021727-8c4969 0.0509 202.951351 -7.56543873E+003 8.00000 8.09699 16 (P21) n - 1
REM
REM Run started: Tue, 04 Aug 2020 04:23:57 +0100 in /lustre/scratch/uccabz1/launch_tmp/launcher_2020-08-04-01-17-19-670663
REM CASTEP 20.1 from code version af48c487+ pr-geom-scf-spinfix Tue Jun 2 15:39:59 2020 +0100
REM Functional Perdew Burke Ernzerhof Relativity Koelling-Harmon Dispersion off
REM Cut-off 340.0000 eV Grid scale 1.7500 Gmax 16.5316 1/A FBSC none
REM MP grid 3 3 3 Offset 0.000 0.000 0.000 No. kpts 10 Spacing 0.07
REM Total runtime: 7640.38 s
REM Overall efficiency: 86.1818 %
REM
REM 2LiFeSO4F.cell (6abdf011d38848201efe8211ff585b1c)
REM
REM compiler GCC version 4.9.2
REM options -cpp -iprefix /lustre/shared/ucl/apps/gcc/4.9.2/bin/../lib/gcc/x86_64-unknown-linux-gnu/4.9.2/ -mtune=corei7 -march=x86-64 -g -Og
REM COMMAND_LINE
REM seed 228060491 258539948 194172943 -1180207385 -1200805132 1400250330 1055679313 391350258 919526251 610737149 -160150925 -795441738
REM
REM S 3|1.8|5|6|7|30:31:32(qc=5)
REM O 2|1.5|12|13|15|20:21(qc=5)
REM Li 1|1.3|8|9|10|10U:20(qc=5)
REM Fe 3|2.2|2.0|1.0|8|9|10|40:41:32(qc=5)
REM F 2|1.6|10|12|13|20:21(qc=5)
REM 
CELL 1.54180    4.89615    6.35386    7.04036  112.08522   90.00000   90.00000
LATT -1
SFAC Li O  F  S  Fe 
Li     1  0.0373400000000  0.0873570000000  0.2713670000000 1.0  -0.02
Li     1 -0.4626600000000 -0.0873570000000 -0.2713670000000 1.0  -0.02
O      2  0.6544200000000  0.0055280000000  0.2878780000000 1.0   0.01
O      2  0.5061580000000 -0.2281140000000 -0.0626900000000 1.0   0.05
O      2  0.2203980000000 -0.2014200000000  0.2384300000000 1.0   0.04
O      2  0.6471870000000 -0.4153830000000  0.1652210000000 1.0   0.05
O      2  0.1544200000000 -0.0055280000000 -0.2878780000000 1.0   0.01
O      2  0.0061580000000  0.2281140000000  0.0626900000000 1.0   0.05
O      2 -0.2796020000000  0.2014200000000 -0.2384300000000 1.0   0.04
O      2  0.1471870000000  0.4153830000000 -0.1652210000000 1.0   0.05
F      3 -0.2793960000000 -0.3757530000000 -0.4413470000000 1.0   0.09
F      3  0.2206040000000  0.3757530000000  0.4413470000000 1.0   0.09
S      4  0.5122550000000 -0.2066310000000  0.1592550000000 1.0   0.01
S      4  0.0122550000000  0.2066310000000 -0.1592550000000 1.0   0.01
Fe     5  0.4879080000000 -0.5543140000000 -0.3131710000000 1.0   3.76
Fe     5 -0.0120920000000  0.5543140000000  0.3131710000000 1.0   3.76
END
