TITL 2LiFeSO4F-200818-211140-7ec952 -0.0583 207.127023 -7.56471602E+003 8.00000 8.13265 16 (P2221) n - 1
REM
REM Run started: Tue, 18 Aug 2020 21:31:26 +0100 in /scratch/scratch/uccabz1/launch_tmp/launcher_2020-08-18-20-11-38-546632
REM CASTEP 19.11| from code version Version unavailable
REM Functional Perdew Burke Ernzerhof Relativity Koelling-Harmon Dispersion off
REM Cut-off 340.0000 eV Grid scale 1.7500 Gmax 16.5316 1/A FBSC none
REM MP grid 3 4 2 Offset 0.000 0.000 0.000 No. kpts 4 Spacing 0.07
REM Total runtime: 1306.26 s
REM Overall efficiency: 68.1429 %
REM
REM 2LiFeSO4F.cell (6abdf011d38848201efe8211ff585b1c)
REM
REM compiler GCC version 4.9.2
REM options -cpp -iprefix /scratch/UCL/applications/gcc/4.9.2/bin/../lib/gcc/x86_64-unknown-linux-gnu/4.9.2/ -mtune=corei7 -march=x86-64 -g -O2
REM COMMAND_LINE
REM seed 1385964943 -1056027939 -851781264 2047215539 -587420704 1446658583 -617812306 -1526308107 1532336677 -1620678986 -629996484 -75463247
REM
REM S 3|1.8|5|6|7|30:31:32(qc=5)
REM O 2|1.5|12|13|15|20:21(qc=5)
REM Li 1|1.3|8|9|10|10U:20(qc=5)
REM Fe 3|2.2|2.0|1.0|8|9|10|40:41:32(qc=5)
REM F 2|1.6|10|12|13|20:21(qc=5)
REM 
CELL 1.54180    5.17070    4.54088    8.82159   90.00000   90.00000   90.00000
LATT -1
SFAC Li O  F  S  Fe 
Li     1  0.5165530000000  0.0000000000000  0.2500000000000 1.0  -0.02
Li     1 -0.5165530000000  0.0000000000000 -0.2500000000000 1.0  -0.02
O      2 -0.1427720000000  0.2336370000000  0.3855700000000 1.0   0.04
O      2  0.1964610000000  0.1411840000000  0.0812280000000 1.0   0.03
O      2  0.1427720000000 -0.2336370000000 -0.1144300000000 1.0   0.04
O      2 -0.1964610000000 -0.1411840000000 -0.4187720000000 1.0   0.03
O      2 -0.1427720000000 -0.2336370000000  0.1144300000000 1.0   0.04
O      2  0.1964610000000 -0.1411840000000  0.4187720000000 1.0   0.03
O      2  0.1427720000000  0.2336370000000 -0.3855700000000 1.0   0.04
O      2 -0.1964610000000  0.1411840000000 -0.0812280000000 1.0   0.03
F      3  0.5506750000000 -0.5000000000000 -0.2500000000000 1.0   0.14
F      3 -0.5506750000000 -0.5000000000000  0.2500000000000 1.0   0.14
S      4  0.0000000000000 -0.0427690000000  0.0000000000000 1.0   0.01
S      4  0.0000000000000  0.0427690000000 -0.5000000000000 1.0   0.01
Fe     5  0.0852880000000  0.5000000000000  0.2500000000000 1.0   3.74
Fe     5 -0.0852880000000 -0.5000000000000 -0.2500000000000 1.0   3.74
END
