TITL 2LiFeSO4F-200804-022154-9da9fb -0.0171 206.697124 -7.56659285E+003 8.00000 8.12822 16 (C2/m) n - 1
REM
REM Run started: Tue, 04 Aug 2020 06:28:12 +0100 in /lustre/scratch/uccabz1/launch_tmp/launcher_2020-08-04-01-21-51-986002
REM CASTEP 20.1 from code version af48c487+ pr-geom-scf-spinfix Tue Jun 2 15:39:59 2020 +0100
REM Functional Perdew Burke Ernzerhof Relativity Koelling-Harmon Dispersion off
REM Cut-off 340.0000 eV Grid scale 1.7500 Gmax 16.5316 1/A FBSC none
REM MP grid 3 4 2 Offset 0.000 0.000 0.000 No. kpts 12 Spacing 0.07
REM Total runtime: 14840.1 s
REM Overall efficiency: 88.1538 %
REM
REM 2LiFeSO4F.cell (6abdf011d38848201efe8211ff585b1c)
REM
REM compiler GCC version 4.9.2
REM options -cpp -iprefix /lustre/shared/ucl/apps/gcc/4.9.2/bin/../lib/gcc/x86_64-unknown-linux-gnu/4.9.2/ -mtune=corei7 -march=x86-64 -g -Og
REM COMMAND_LINE
REM seed -1257822949 -2073478116 -1790222511 -352587409 -2000321233 -633771574 -1890628190 -551299397 -372127594 -94984376 1271885381 -362224733
REM
REM S 3|1.8|5|6|7|30:31:32(qc=5)
REM O 2|1.5|12|13|15|20:21(qc=5)
REM Li 1|1.3|8|9|10|10U:20(qc=5)
REM Fe 3|2.2|2.0|1.0|8|9|10|40:41:32(qc=5)
REM F 2|1.6|10|12|13|20:21(qc=5)
REM 
CELL 1.54180    5.92978    4.78888    9.46985  123.72453  108.71529   89.67344
LATT -1
SFAC Li O  F  S  Fe 
Li     1  0.1397320000000  0.2971510000000 -0.2205320000000 1.0  -0.01
Li     1 -0.1397320000000 -0.2971510000000  0.2205320000000 1.0  -0.01
O      2  0.4169400000000  0.0804670000000  0.3337890000000 1.0   0.09
O      2  0.1899910000000 -0.3994350000000  0.2967490000000 1.0   0.05
O      2  0.6090820000000 -0.3992260000000  0.2987310000000 1.0   0.05
O      2  0.2694300000000 -0.4838400000000  0.0371050000000 1.0   0.02
O      2 -0.4169400000000 -0.0804670000000 -0.3337890000000 1.0   0.09
O      2 -0.1899910000000  0.3994350000000 -0.2967490000000 1.0   0.05
O      2 -0.6090820000000  0.3992260000000 -0.2987310000000 1.0   0.05
O      2 -0.2694300000000  0.4838400000000 -0.0371050000000 1.0   0.02
F      3  0.0660840000000 -0.1768260000000 -0.3688390000000 1.0   0.09
F      3 -0.0660840000000  0.1768260000000  0.3688390000000 1.0   0.09
S      4  0.3683310000000 -0.3111650000000  0.2356720000000 1.0   0.01
S      4 -0.3683310000000  0.3111650000000 -0.2356720000000 1.0   0.01
Fe     5  0.2815390000000 -0.4995900000000 -0.5008430000000 1.0   3.69
Fe     5 -0.2815390000000  0.4995900000000  0.5008430000000 1.0   3.69
END
