TITL 2LiFeSO4F-200804-052525-770d61 -0.0319 191.544736 -7.56633707E+003 8.00000 8.11048 16 (Cc) n - 1
REM
REM Run started: Tue, 04 Aug 2020 08:31:43 +0100 in /lustre/scratch/uccabz1/launch_tmp/launcher_2020-08-04-04-25-23-821252
REM CASTEP 20.1 from code version af48c487+ pr-geom-scf-spinfix Tue Jun 2 15:39:59 2020 +0100
REM Functional Perdew Burke Ernzerhof Relativity Koelling-Harmon Dispersion off
REM Cut-off 340.0000 eV Grid scale 1.7500 Gmax 16.5316 1/A FBSC none
REM MP grid 3 3 5 Offset 0.000 0.000 0.000 No. kpts 16 Spacing 0.07
REM Total runtime: 11614.5 s
REM Overall efficiency: 93.2727 %
REM
REM 2LiFeSO4F.cell (6abdf011d38848201efe8211ff585b1c)
REM
REM compiler GCC version 4.9.2
REM options -cpp -iprefix /lustre/shared/ucl/apps/gcc/4.9.2/bin/../lib/gcc/x86_64-unknown-linux-gnu/4.9.2/ -mtune=corei7 -march=x86-64 -g -Og
REM COMMAND_LINE
REM seed -1804978136 -909739262 -875131351 -1558085280 1803446643 -1865705791 -761385924 -1829048208 -535044310 2026472098 1629970367 -1955476461
REM
REM S 3|1.8|5|6|7|30:31:32(qc=5)
REM O 2|1.5|12|13|15|20:21(qc=5)
REM Li 1|1.3|8|9|10|10U:20(qc=5)
REM Fe 3|2.2|2.0|1.0|8|9|10|40:41:32(qc=5)
REM F 2|1.6|10|12|13|20:21(qc=5)
REM 
CELL 1.54180    7.47544    7.47544    5.29333   57.15657   57.15657   89.24409
LATT -1
SFAC Li O  F  S  Fe 
Li     1 -0.1205210000000 -0.2667540000000 -0.0415150000000 1.0  -0.01
Li     1 -0.2667540000000 -0.1205210000000  0.4584850000000 1.0  -0.01
O      2  0.5632630000000 -0.2893340000000  0.3755600000000 1.0   0.01
O      2  0.2660070000000 -0.5990740000000  0.5894430000000 1.0   0.07
O      2  0.3005440000000 -0.2058410000000  0.2216060000000 1.0   0.06
O      2  0.1470170000000 -0.4199640000000  0.9018170000000 1.0   0.03
O      2 -0.2893340000000  0.5632630000000 -0.1244400000000 1.0   0.01
O      2 -0.5990740000000  0.2660070000000  0.0894430000000 1.0   0.07
O      2 -0.2058410000000  0.3005440000000 -0.2783940000000 1.0   0.06
O      2 -0.4199640000000  0.1470170000000  0.4018170000000 1.0   0.03
F      3 -0.0369540000000  0.0130010000000 -0.5419420000000 1.0   0.09
F      3  0.0130010000000 -0.0369540000000 -0.0419420000000 1.0   0.09
S      4  0.3230920000000 -0.3729420000000  0.5219400000000 1.0   0.02
S      4 -0.3729420000000  0.3230920000000  0.0219400000000 1.0   0.02
Fe     5  0.0922610000000  0.2727480000000 -0.5563220000000 1.0   3.73
Fe     5  0.2727480000000  0.0922610000000 -0.0563220000000 1.0   3.73
END
