TITL 2LiFeSO4F-200819-015747-d614c7 0.0088 207.565918 -7.56256776E+003 8.00000 8.16177 16 (Cm) n - 1
REM
REM Run started: Wed, 19 Aug 2020 03:43:02 +0100 in /lustre/scratch/uccabz1/launch_tmp/launcher_2020-08-19-00-57-44-510235
REM CASTEP 20.1 from code version af48c487+ pr-geom-scf-spinfix Tue Jun 2 15:39:59 2020 +0100
REM Functional Perdew Burke Ernzerhof Relativity Koelling-Harmon Dispersion off
REM Cut-off 340.0000 eV Grid scale 1.7500 Gmax 16.5316 1/A FBSC none
REM MP grid 4 3 3 Offset 0.000 0.000 0.000 No. kpts 12 Spacing 0.07
REM Total runtime: 7165.33 s
REM Overall efficiency: 83.3333 %
REM
REM 2LiFeSO4F.cell (6abdf011d38848201efe8211ff585b1c)
REM
REM compiler GCC version 4.9.2
REM options -cpp -iprefix /lustre/shared/ucl/apps/gcc/4.9.2/bin/../lib/gcc/x86_64-unknown-linux-gnu/4.9.2/ -mtune=corei7 -march=x86-64 -g -Og
REM COMMAND_LINE
REM seed 411550890 669459692 -1721506602 -849209799 -778805949 1816114141 -882989346 -382686527 -1645807210 -169920798 -122969817 -1866689527
REM
REM S 3|1.8|5|6|7|30:31:32(qc=5)
REM O 2|1.5|12|13|15|20:21(qc=5)
REM Li 1|1.3|8|9|10|10U:20(qc=5)
REM Fe 3|2.2|2.0|1.0|8|9|10|40:41:32(qc=5)
REM F 2|1.6|10|12|13|20:21(qc=5)
REM 
CELL 1.54180    5.64223    6.93717    6.93717   73.72016   61.05870   61.05870
LATT -1
SFAC Li O  F  S  Fe 
Li     1 -0.2916220000000  0.2721120000000 -0.2189790000000 1.0  -0.04
Li     1 -0.2916220000000 -0.2189790000000  0.2721120000000 1.0  -0.04
O      2  0.6766790000000 -0.1391950000000 -0.4377840000000 1.0   0.04
O      2  0.3617690000000  0.0731480000000 -0.6217350000000 1.0   0.03
O      2  0.4564270000000  0.2499840000000 -0.3871480000000 1.0   0.05
O      2  0.1056410000000  0.0888830000000 -0.2273580000000 1.0   0.02
O      2  0.6766790000000 -0.4377840000000 -0.1391950000000 1.0   0.04
O      2  0.3617690000000 -0.6217350000000  0.0731480000000 1.0   0.03
O      2  0.4564270000000 -0.3871480000000  0.2499840000000 1.0   0.05
O      2  0.1056410000000 -0.2273580000000  0.0888830000000 1.0   0.02
F      3  0.1202520000000 -0.3062960000000 -0.3062960000000 1.0   0.11
F      3  0.0208440000000  0.1740660000000  0.1740660000000 1.0   0.11
S      4  0.3956400000000  0.0696090000000 -0.4169120000000 1.0   0.01
S      4  0.3956400000000 -0.4169120000000  0.0696090000000 1.0   0.01
Fe     5  0.0752050000000  0.4101770000000 -0.0923040000000 1.0   3.77
Fe     5  0.0752050000000 -0.0923040000000  0.4101770000000 1.0   3.77
END
