TITL 2LiFeSO4F-200818-213137-d64b4a 0.0330 241.295410 -7.56400331E+003 8.00048 8.12976 16 (C2) n - 1
REM
REM Run started: Wed, 19 Aug 2020 02:42:04 +0100 in /lustre/scratch/uccabz1/launch_tmp/launcher_2020-08-18-20-31-28-258643
REM CASTEP 20.1 from code version af48c487+ pr-geom-scf-spinfix Tue Jun 2 15:39:59 2020 +0100
REM Functional Perdew Burke Ernzerhof Relativity Koelling-Harmon Dispersion off
REM Cut-off 340.0000 eV Grid scale 1.7500 Gmax 16.5316 1/A FBSC none
REM MP grid 4 3 2 Offset 0.000 0.000 0.000 No. kpts 12 Spacing 0.07
REM Total runtime: 18716.7 s
REM Overall efficiency: 86.7692 %
REM
REM 2LiFeSO4F.cell (6abdf011d38848201efe8211ff585b1c)
REM
REM compiler GCC version 4.9.2
REM options -cpp -iprefix /lustre/shared/ucl/apps/gcc/4.9.2/bin/../lib/gcc/x86_64-unknown-linux-gnu/4.9.2/ -mtune=corei7 -march=x86-64 -g -Og
REM COMMAND_LINE
REM seed 1033742025 1422781251 -1269743337 -259777903 360756264 507638804 1701830829 1341433188 -190404455 683997204 2130818847 1767379977
REM
REM S 3|1.8|5|6|7|30:31:32(qc=5)
REM O 2|1.5|12|13|15|20:21(qc=5)
REM Li 1|1.3|8|9|10|10U:20(qc=5)
REM Fe 3|2.2|2.0|1.0|8|9|10|40:41:32(qc=5)
REM F 2|1.6|10|12|13|20:21(qc=5)
REM 
CELL 1.54180    5.18861    6.07151    9.60736  115.13078  113.40538   66.26178
LATT -1
SFAC Li O  F  S  Fe 
Li     1  0.0087070000000  0.0087070000000  0.0174140000000 1.0  -0.01
Li     1  0.4177520000000  0.4177520000000  0.8355030000000 1.0   0.02
O      2  0.1354630000000  0.2119730000000 -0.2720720000000 1.0   0.38
O      2  0.5384610000000  0.7438220000000  0.5320140000000 1.0   0.04
O      2  0.4762550000000  0.1389460000000  0.4283820000000 1.0   0.03
O      2  0.0869790000000  0.3183610000000  0.2198490000000 1.0   0.01
O      2 -0.4075360000000 -0.4840460000000 -0.2720720000000 1.0   0.38
O      2 -0.0064470000000 -0.2118080000000  0.5320140000000 1.0   0.04
O      2 -0.0478730000000  0.2894360000000  0.4283820000000 1.0   0.03
O      2  0.1328700000000 -0.0985120000000  0.2198490000000 1.0   0.01
F      3  0.2427630000000 -0.1892080000000 -0.1118950000000 1.0   0.12
F      3 -0.3546590000000  0.0773120000000 -0.1118950000000 1.0   0.12
S      4  0.1596400000000  0.1596400000000  0.3192800000000 1.0   0.01
S      4 -0.2829250000000 -0.2829250000000 -0.5658500000000 1.0   0.00
Fe     5  0.3718660000000 -0.1281340000000 -0.2562680000000 1.0   3.89
Fe     5 -0.2028680000000  0.2971320000000  0.5942630000000 1.0   2.94
END
