TITL 2LiFeSO4F-200804-043401-c2d2cf -0.0118 241.691640 -7.56109218E+003 7.66993 7.86183 16 (Pmn21) n - 1
REM
REM Run started: Tue, 04 Aug 2020 05:32:14 +0100 in /lustre/scratch/uccabz1/launch_tmp/launcher_2020-08-04-03-33-48-058068
REM CASTEP 20.1 from code version af48c487+ pr-geom-scf-spinfix Tue Jun 2 15:39:59 2020 +0100
REM Functional Perdew Burke Ernzerhof Relativity Koelling-Harmon Dispersion off
REM Cut-off 340.0000 eV Grid scale 1.7500 Gmax 16.5316 1/A FBSC none
REM MP grid 3 3 2 Offset 0.000 0.000 0.000 No. kpts 4 Spacing 0.07
REM Total runtime: 3528.79 s
REM Overall efficiency: 71.8 %
REM
REM 2LiFeSO4F.cell (6abdf011d38848201efe8211ff585b1c)
REM
REM compiler GCC version 4.9.2
REM options -cpp -iprefix /lustre/shared/ucl/apps/gcc/4.9.2/bin/../lib/gcc/x86_64-unknown-linux-gnu/4.9.2/ -mtune=corei7 -march=x86-64 -g -Og
REM COMMAND_LINE
REM seed -1539093256 1699097285 -437186946 -1021335283 2049948488 -934040016 1478661205 1031935166 -1920249811 -936271251 -521107112 -1179736819
REM
REM S 3|1.8|5|6|7|30:31:32(qc=5)
REM O 2|1.5|12|13|15|20:21(qc=5)
REM Li 1|1.3|8|9|10|10U:20(qc=5)
REM Fe 3|2.2|2.0|1.0|8|9|10|40:41:32(qc=5)
REM F 2|1.6|10|12|13|20:21(qc=5)
REM 
CELL 1.54180    5.03524    5.11581    9.38269   90.00000   90.00000   90.00000
LATT -1
SFAC Li O  F  S  Fe 
Li     1 -0.0688060000000 -0.0000000000000 -0.0942450000000 1.0   0.02
Li     1 -0.5688060000000 -0.5000000000000  0.0942450000000 1.0   0.02
O      2 -0.2491330000000  0.2276270000000 -0.2321310000000 1.0   0.11
O      2  0.3665490000000  0.2275580000000 -0.3631870000000 1.0   0.14
O      2 -0.7491330000000  0.2723730000000  0.2321310000000 1.0   0.11
O      2 -0.1334510000000  0.2724420000000  0.3631870000000 1.0   0.14
O      2 -0.7491330000000 -0.2723730000000  0.2321310000000 1.0   0.11
O      2 -0.1334510000000 -0.2724420000000  0.3631870000000 1.0   0.14
O      2 -0.2491330000000 -0.2276270000000 -0.2321310000000 1.0   0.11
O      2  0.3665490000000 -0.2275580000000 -0.3631870000000 1.0   0.14
F      3 -0.1735310000000 -0.0000000000000  0.0866470000000 1.0   0.16
F      3  0.3264690000000  0.5000000000000 -0.0866470000000 1.0   0.16
S      4 -0.3925000000000 -0.0000000000000 -0.3466540000000 1.0   0.09
S      4  0.1075000000000 -0.5000000000000  0.3466540000000 1.0   0.09
Fe     5  0.0203900000000 -0.0000000000000  0.2671250000000 1.0   3.06
Fe     5 -0.4796100000000 -0.5000000000000 -0.2671250000000 1.0   3.06
END
