TITL 2LiFeSO4F-200819-011801-964181 -0.0043 238.218437 -7.56277954E+003 8.00000 8.13997 16 (P2) n - 1
REM
REM Run started: Wed, 19 Aug 2020 05:30:12 +0100 in /lustre/scratch/uccabz1/launch_tmp/launcher_2020-08-19-00-17-59-264048
REM CASTEP 20.1 from code version af48c487+ pr-geom-scf-spinfix Tue Jun 2 15:39:59 2020 +0100
REM Functional Perdew Burke Ernzerhof Relativity Koelling-Harmon Dispersion off
REM Cut-off 340.0000 eV Grid scale 1.7500 Gmax 16.5316 1/A FBSC none
REM MP grid 4 3 3 Offset 0.000 0.000 0.000 No. kpts 12 Spacing 0.07
REM Total runtime: 15881.9 s
REM Overall efficiency: 88 %
REM
REM 2LiFeSO4F.cell (6abdf011d38848201efe8211ff585b1c)
REM
REM compiler GCC version 4.9.2
REM options -cpp -iprefix /lustre/shared/ucl/apps/gcc/4.9.2/bin/../lib/gcc/x86_64-unknown-linux-gnu/4.9.2/ -mtune=corei7 -march=x86-64 -g -Og
REM COMMAND_LINE
REM seed -1434192 -1269218368 -1910318965 -1862835449 -154217335 637518789 -1950241424 -359186173 1558548211 1556155159 133179374 -1795063945
REM
REM S 3|1.8|5|6|7|30:31:32(qc=5)
REM O 2|1.5|12|13|15|20:21(qc=5)
REM Li 1|1.3|8|9|10|10U:20(qc=5)
REM Fe 3|2.2|2.0|1.0|8|9|10|40:41:32(qc=5)
REM F 2|1.6|10|12|13|20:21(qc=5)
REM 
CELL 1.54180    5.07938    6.99741    8.34234   90.00000  126.54272   90.00000
LATT -1
SFAC Li O  F  S  Fe 
Li     1 -0.0000000000000 -0.2856090000000 -0.5000000000000 1.0  -0.04
Li     1 -0.0000000000000  0.2297630000000 -0.0000000000000 1.0  -0.03
O      2 -0.3008400000000  0.0289440000000 -0.1854890000000 1.0   0.02
O      2 -0.0133040000000 -0.1594660000000 -0.2855300000000 1.0   0.01
O      2 -0.5089350000000 -0.2948690000000 -0.3288180000000 1.0   0.00
O      2  0.3008400000000  0.0289440000000  0.1854890000000 1.0   0.02
O      2  0.0133040000000 -0.1594660000000  0.2855300000000 1.0   0.01
O      2  0.5089350000000 -0.2948690000000  0.3288180000000 1.0   0.00
O      2  0.5000000000000  0.2613500000000 -0.0000000000000 1.0   0.35
O      2 -0.0000000000000 -0.2749850000000 -0.0000000000000 1.0   0.00
F      3 -0.7912720000000  0.2493990000000 -0.5286080000000 1.0   0.13
F      3  0.7912720000000  0.2493990000000  0.5286080000000 1.0   0.13
S      4 -0.2270900000000 -0.1665650000000 -0.2206540000000 1.0   0.01
S      4  0.2270900000000 -0.1665650000000  0.2206540000000 1.0   0.01
Fe     5  0.2668070000000  0.2038370000000 -0.2700660000000 1.0   3.69
Fe     5 -0.2668070000000  0.2038370000000  0.2700660000000 1.0   3.69
END
