TITL 2LiFeSO4F-200804-023128-9c2a76 0.0508 226.760562 -7.56528766E+003 8.00000 8.12980 16 (P2) n - 1
REM
REM Run started: Tue, 04 Aug 2020 03:04:15 +0100 in /lustre/scratch/uccabz1/launch_tmp/launcher_2020-08-04-01-31-25-619482
REM CASTEP 20.1 from code version af48c487+ pr-geom-scf-spinfix Tue Jun 2 15:39:59 2020 +0100
REM Functional Perdew Burke Ernzerhof Relativity Koelling-Harmon Dispersion off
REM Cut-off 340.0000 eV Grid scale 1.7500 Gmax 16.5316 1/A FBSC none
REM MP grid 3 3 2 Offset 0.000 0.000 0.000 No. kpts 6 Spacing 0.07
REM Total runtime: 2007.1 s
REM Overall efficiency: 69.7143 %
REM
REM 2LiFeSO4F.cell (6abdf011d38848201efe8211ff585b1c)
REM
REM compiler GCC version 4.9.2
REM options -cpp -iprefix /lustre/shared/ucl/apps/gcc/4.9.2/bin/../lib/gcc/x86_64-unknown-linux-gnu/4.9.2/ -mtune=corei7 -march=x86-64 -g -Og
REM COMMAND_LINE
REM seed -2015310602 -507827259 1795451521 1982387853 -472379152 -1179981455 245026897 -577409174 172271952 -1388009989 886413488 1049481689
REM
REM S 3|1.8|5|6|7|30:31:32(qc=5)
REM O 2|1.5|12|13|15|20:21(qc=5)
REM Li 1|1.3|8|9|10|10U:20(qc=5)
REM Fe 3|2.2|2.0|1.0|8|9|10|40:41:32(qc=5)
REM F 2|1.6|10|12|13|20:21(qc=5)
REM 
CELL 1.54180    4.92013    6.11147    7.55513   93.46971   90.00000   90.00000
LATT -1
SFAC Li O  F  S  Fe 
Li     1 -0.3359110000000  0.2977860000000 -0.3887680000000 1.0  -0.02
Li     1 -0.3359110000000 -0.2977860000000  0.3887680000000 1.0  -0.02
O      2 -0.1080300000000 -0.2424480000000  0.1967930000000 1.0   0.00
O      2  0.3069190000000 -0.0324370000000  0.2892130000000 1.0   0.07
O      2  0.2919640000000 -0.2504840000000  0.0030190000000 1.0   0.06
O      2  0.3157530000000 -0.4246680000000  0.2898080000000 1.0   0.07
O      2 -0.1080300000000  0.2424480000000 -0.1967930000000 1.0   0.00
O      2  0.3069190000000  0.0324370000000 -0.2892130000000 1.0   0.07
O      2  0.2919640000000  0.2504840000000 -0.0030190000000 1.0   0.06
O      2  0.3157530000000  0.4246680000000 -0.2898080000000 1.0   0.07
F      3 -0.1668350000000 -0.2964690000000 -0.3913710000000 1.0   0.10
F      3 -0.1668350000000  0.2964690000000  0.3913710000000 1.0   0.10
S      4  0.1920290000000 -0.2361240000000  0.1906550000000 1.0   0.01
S      4  0.1920290000000  0.2361240000000 -0.1906550000000 1.0   0.01
Fe     5  0.1494780000000 -0.2662470000000 -0.2457780000000 1.0   3.70
Fe     5  0.1494780000000  0.2662470000000  0.2457780000000 1.0   3.70
END
