TITL 2LiFeSO4F-200819-030405-d96fd3 -0.0482 205.051863 -7.56577645E+003 8.00000 8.09652 16 (Cc) n - 1
REM
REM Run started: Wed, 19 Aug 2020 04:05:28 +0100 in /lustre/scratch/uccabz1/launch_tmp/launcher_2020-08-19-02-04-01-778967
REM CASTEP 20.1 from code version af48c487+ pr-geom-scf-spinfix Tue Jun 2 15:39:59 2020 +0100
REM Functional Perdew Burke Ernzerhof Relativity Koelling-Harmon Dispersion off
REM Cut-off 340.0000 eV Grid scale 1.7500 Gmax 16.5316 1/A FBSC none
REM MP grid 3 3 3 Offset 0.000 0.000 0.000 No. kpts 10 Spacing 0.07
REM Total runtime: 3738.1 s
REM Overall efficiency: 90.5 %
REM
REM 2LiFeSO4F.cell (6abdf011d38848201efe8211ff585b1c)
REM
REM compiler GCC version 4.9.2
REM options -cpp -iprefix /lustre/shared/ucl/apps/gcc/4.9.2/bin/../lib/gcc/x86_64-unknown-linux-gnu/4.9.2/ -mtune=corei7 -march=x86-64 -g -Og
REM COMMAND_LINE
REM seed 450639617 -1307000915 1428503268 -164648022 -531014700 1906287526 1823324060 -272327443 -116566464 -1365408462 1961563851 -2075864474
REM
REM S 3|1.8|5|6|7|30:31:32(qc=5)
REM O 2|1.5|12|13|15|20:21(qc=5)
REM Li 1|1.3|8|9|10|10U:20(qc=5)
REM Fe 3|2.2|2.0|1.0|8|9|10|40:41:32(qc=5)
REM F 2|1.6|10|12|13|20:21(qc=5)
REM 
CELL 1.54180    5.90144    6.14091    6.14091  107.84199   98.50687   98.50687
LATT -1
SFAC Li O  F  S  Fe 
Li     1  0.0829680000000  0.1134930000000  0.2787040000000 1.0  -0.02
Li     1 -0.4170320000000  0.2787040000000  0.1134930000000 1.0  -0.02
O      2 -0.0727980000000  0.2222580000000 -0.3074820000000 1.0   0.07
O      2 -0.0279910000000  0.6366220000000 -0.2227860000000 1.0   0.08
O      2 -0.3706100000000  0.4296370000000 -0.1366790000000 1.0   0.04
O      2 -0.3413500000000  0.3624580000000 -0.5481970000000 1.0   0.01
O      2  0.4272020000000 -0.3074820000000  0.2222580000000 1.0   0.07
O      2  0.4720090000000 -0.2227860000000  0.6366220000000 1.0   0.08
O      2  0.1293900000000 -0.1366790000000  0.4296370000000 1.0   0.04
O      2  0.1586500000000 -0.5481970000000  0.3624580000000 1.0   0.01
F      3 -0.2053910000000  0.0317480000000  0.0563170000000 1.0   0.07
F      3  0.2946090000000  0.0563170000000  0.0317480000000 1.0   0.07
S      4 -0.2102980000000  0.4101510000000 -0.3102680000000 1.0   0.02
S      4  0.2897020000000 -0.3102680000000  0.4101510000000 1.0   0.02
Fe     5 -0.0026950000000 -0.0480160000000 -0.2365190000000 1.0   3.72
Fe     5 -0.5026950000000 -0.2365190000000 -0.0480160000000 1.0   3.72
END
