TITL 2LiFeSO4F-200819-015607-5fa2b8 -0.0307 224.286551 -7.56590600E+003 8.00000 8.10666 16 (Pc) n - 1
REM
REM Run started: Wed, 19 Aug 2020 03:46:22 +0100 in /lustre/scratch/uccabz1/launch_tmp/launcher_2020-08-19-00-56-02-859366
REM CASTEP 20.1 from code version af48c487+ pr-geom-scf-spinfix Tue Jun 2 15:39:59 2020 +0100
REM Functional Perdew Burke Ernzerhof Relativity Koelling-Harmon Dispersion off
REM Cut-off 340.0000 eV Grid scale 1.7500 Gmax 16.5316 1/A FBSC none
REM MP grid 3 3 3 Offset 0.000 0.000 0.000 No. kpts 10 Spacing 0.07
REM Total runtime: 6796.63 s
REM Overall efficiency: 93.6667 %
REM
REM 2LiFeSO4F.cell (6abdf011d38848201efe8211ff585b1c)
REM
REM compiler GCC version 4.9.2
REM options -cpp -iprefix /lustre/shared/ucl/apps/gcc/4.9.2/bin/../lib/gcc/x86_64-unknown-linux-gnu/4.9.2/ -mtune=corei7 -march=x86-64 -g -Og
REM COMMAND_LINE
REM seed -334133488 -1853546733 -2121676412 353221296 1663230748 1440906668 463764832 183260816 414993144 -1177001444 574813448 62802874
REM
REM S 3|1.8|5|6|7|30:31:32(qc=5)
REM O 2|1.5|12|13|15|20:21(qc=5)
REM Li 1|1.3|8|9|10|10U:20(qc=5)
REM Fe 3|2.2|2.0|1.0|8|9|10|40:41:32(qc=5)
REM F 2|1.6|10|12|13|20:21(qc=5)
REM 
CELL 1.54180    5.96500    7.56965    5.30023  110.41680   90.00000   90.00000
LATT -1
SFAC Li O  F  S  Fe 
Li     1 -0.2659900000000 -0.4400790000000 -0.1998470000000 1.0  -0.02
Li     1  0.2659900000000  0.0599210000000 -0.1998470000000 1.0  -0.02
O      2  0.2236660000000 -0.2193370000000 -0.3058870000000 1.0   0.06
O      2  0.4598000000000 -0.3225720000000 -0.0045900000000 1.0   0.02
O      2  0.2560430000000 -0.5587090000000 -0.3659520000000 1.0   0.06
O      2  0.0415810000000 -0.3444090000000  0.0129310000000 1.0   0.06
O      2 -0.2236660000000  0.2806630000000 -0.3058870000000 1.0   0.06
O      2 -0.4598000000000  0.1774280000000 -0.0045900000000 1.0   0.02
O      2 -0.2560430000000 -0.0587090000000 -0.3659520000000 1.0   0.06
O      2 -0.0415810000000  0.1555910000000  0.0129310000000 1.0   0.06
F      3  0.1555860000000  0.0389440000000  0.4557570000000 1.0   0.09
F      3 -0.1555860000000 -0.4610560000000  0.4557570000000 1.0   0.09
S      4  0.2511150000000 -0.3610870000000 -0.1638740000000 1.0   0.01
S      4 -0.2511150000000  0.1389130000000 -0.1638740000000 1.0   0.01
Fe     5  0.0140570000000  0.2761370000000  0.4063580000000 1.0   3.73
Fe     5 -0.0140570000000 -0.2238630000000  0.4063580000000 1.0   3.73
END
