TITL 2LiFeSO4F-200818-200538-43de2d -0.3809 271.660311 -7.56042999E+003 7.96640 8.18448 16 (C2/m) n - 1
REM
REM Run started: Tue, 18 Aug 2020 23:54:16 +0100 in /lustre/scratch/uccabz1/launch_tmp/launcher_2020-08-18-19-05-36-092408
REM CASTEP 20.1 from code version af48c487+ pr-geom-scf-spinfix Tue Jun 2 15:39:59 2020 +0100
REM Functional Perdew Burke Ernzerhof Relativity Koelling-Harmon Dispersion off
REM Cut-off 340.0000 eV Grid scale 1.7500 Gmax 16.5316 1/A FBSC none
REM MP grid 3 3 3 Offset 0.000 0.000 0.000 No. kpts 10 Spacing 0.07
REM Total runtime: 15180.1 s
REM Overall efficiency: 89.4615 %
REM
REM 2LiFeSO4F.cell (6abdf011d38848201efe8211ff585b1c)
REM
REM compiler GCC version 4.9.2
REM options -cpp -iprefix /lustre/shared/ucl/apps/gcc/4.9.2/bin/../lib/gcc/x86_64-unknown-linux-gnu/4.9.2/ -mtune=corei7 -march=x86-64 -g -Og
REM COMMAND_LINE
REM seed -764678106 1024114462 -1614048179 -74077575 -389416141 -536886331 350024611 -1396494072 1180871166 -57197194 -644539221 29484245
REM
REM S 3|1.8|5|6|7|30:31:32(qc=5)
REM O 2|1.5|12|13|15|20:21(qc=5)
REM Li 1|1.3|8|9|10|10U:20(qc=5)
REM Fe 3|2.2|2.0|1.0|8|9|10|40:41:32(qc=5)
REM F 2|1.6|10|12|13|20:21(qc=5)
REM 
CELL 1.54180    7.23376    5.31582    8.09669  109.16389   68.78781   90.00000
LATT -1
SFAC Li O  F  S  Fe 
Li     1  0.2896590000000 -0.1853930000000 -0.3707860000000 1.0   0.01
Li     1 -0.2896590000000  0.1853930000000  0.3707860000000 1.0   0.01
O      2 -0.2106690000000  0.1749480000000 -0.1848940000000 1.0   0.05
O      2 -0.1695310000000 -0.0445440000000 -0.5518270000000 1.0   0.35
O      2  0.2106690000000  0.3598420000000  0.1848940000000 1.0   0.05
O      2  0.1695310000000  0.5072830000000  0.5518280000000 1.0   0.35
O      2  0.2106690000000 -0.1749480000000  0.1848940000000 1.0   0.05
O      2  0.1695310000000  0.0445440000000  0.5518280000000 1.0   0.35
O      2 -0.2106690000000 -0.3598420000000 -0.1848940000000 1.0   0.05
O      2 -0.1695310000000 -0.5072830000000 -0.5518270000000 1.0   0.35
F      3  0.4767620000000 -0.1365780000000 -0.2731560000000 1.0   0.17
F      3 -0.4767620000000  0.1365780000000  0.2731560000000 1.0   0.17
S      4  0.0921450000000 -0.4051860000000 -0.8103730000000 1.0   0.07
S      4 -0.0921450000000  0.4051870000000  0.8103730000000 1.0   0.07
Fe     5  0.2361470000000  0.1940340000000  0.3880680000000 1.0   2.94
Fe     5 -0.2361470000000 -0.1940340000000 -0.3880680000000 1.0   2.94
END
