TITL 2LiFeSO4F-200818-212114-666da0 0.0163 236.277189 -7.55746609E+003 7.95682 8.08040 16 (P42) n - 1
REM
REM Run started: Tue, 18 Aug 2020 22:26:02 +0100 in /lustre/scratch/uccabz1/launch_tmp/launcher_2020-08-18-20-21-10-115760
REM CASTEP 20.1 from code version af48c487+ pr-geom-scf-spinfix Tue Jun 2 15:39:59 2020 +0100
REM Functional Perdew Burke Ernzerhof Relativity Koelling-Harmon Dispersion off
REM Cut-off 340.0000 eV Grid scale 1.7500 Gmax 16.5316 1/A FBSC none
REM MP grid 4 4 1 Offset 0.000 0.000 0.000 No. kpts 4 Spacing 0.07
REM Total runtime: 4229.95 s
REM Overall efficiency: 74.5 %
REM
REM 2LiFeSO4F.cell (6abdf011d38848201efe8211ff585b1c)
REM
REM compiler GCC version 4.9.2
REM options -cpp -iprefix /lustre/shared/ucl/apps/gcc/4.9.2/bin/../lib/gcc/x86_64-unknown-linux-gnu/4.9.2/ -mtune=corei7 -march=x86-64 -g -Og
REM COMMAND_LINE
REM seed -1736572043 -351129640 436331348 -553844136 -843071122 -1580257143 377199997 -1310915220 642567868 2077580510 1499096752 -1057810056
REM
REM S 3|1.8|5|6|7|30:31:32(qc=5)
REM O 2|1.5|12|13|15|20:21(qc=5)
REM Li 1|1.3|8|9|10|10U:20(qc=5)
REM Fe 3|2.2|2.0|1.0|8|9|10|40:41:32(qc=5)
REM F 2|1.6|10|12|13|20:21(qc=5)
REM 
CELL 1.54180    3.94578    3.94578   15.17595   90.00000   90.00000   90.00000
LATT -1
SFAC Li O  F  S  Fe 
Li     1 -0.5000000000000 -0.5000000000000 -0.1447570000000 1.0  -0.03
Li     1  0.5000000000000  0.5000000000000  0.3552430000000 1.0  -0.03
O      2  0.2959250000000  0.2311500000000  0.2517590000000 1.0   0.02
O      2 -0.2103240000000  0.2576770000000  0.0499820000000 1.0   0.51
O      2 -0.2959250000000 -0.2311500000000  0.2517590000000 1.0   0.02
O      2  0.2103240000000 -0.2576770000000  0.0499820000000 1.0   0.51
O      2  0.2311500000000 -0.2959250000000 -0.2482410000000 1.0   0.02
O      2  0.2576770000000  0.2103240000000 -0.4500180000000 1.0   0.51
O      2 -0.2311500000000  0.2959250000000 -0.2482410000000 1.0   0.02
O      2 -0.2576770000000 -0.2103240000000 -0.4500180000000 1.0   0.51
F      3  0.5000000000000 -0.0000000000000 -0.0968790000000 1.0   0.05
F      3  0.0000000000000 -0.5000000000000  0.4031210000000 1.0   0.05
S      4  0.0000000000000  0.5000000000000 -0.3048220000000 1.0   0.06
S      4  0.5000000000000 -0.0000000000000  0.1951780000000 1.0   0.06
Fe     5  0.0000000000000 -0.0000000000000 -0.0152750000000 1.0   2.84
Fe     5  0.0000000000000 -0.0000000000000  0.4847250000000 1.0   2.84
END
