TITL 2LiFeSO4F-200818-223417-de870c 0.0310 220.954119 -7.56524525E+003 8.00000 8.09156 16 (Cc) n - 1
REM
REM Run started: Wed, 19 Aug 2020 00:28:13 +0100 in /lustre/scratch/uccabz1/launch_tmp/launcher_2020-08-18-21-34-13-358993
REM CASTEP 20.1 from code version af48c487+ pr-geom-scf-spinfix Tue Jun 2 15:39:59 2020 +0100
REM Functional Perdew Burke Ernzerhof Relativity Koelling-Harmon Dispersion off
REM Cut-off 340.0000 eV Grid scale 1.7500 Gmax 16.5316 1/A FBSC none
REM MP grid 3 3 2 Offset 0.000 0.000 0.000 No. kpts 6 Spacing 0.07
REM Total runtime: 7452.58 s
REM Overall efficiency: 83.1667 %
REM
REM 2LiFeSO4F.cell (6abdf011d38848201efe8211ff585b1c)
REM
REM compiler GCC version 4.9.2
REM options -cpp -iprefix /lustre/shared/ucl/apps/gcc/4.9.2/bin/../lib/gcc/x86_64-unknown-linux-gnu/4.9.2/ -mtune=corei7 -march=x86-64 -g -Og
REM COMMAND_LINE
REM seed -1772538458 -899616963 1233109114 498948547 -1335235829 -194408231 -1585358491 -223784483 -402811097 -1879610096 1641627176 1265403746
REM
REM S 3|1.8|5|6|7|30:31:32(qc=5)
REM O 2|1.5|12|13|15|20:21(qc=5)
REM Li 1|1.3|8|9|10|10U:20(qc=5)
REM Fe 3|2.2|2.0|1.0|8|9|10|40:41:32(qc=5)
REM F 2|1.6|10|12|13|20:21(qc=5)
REM 
CELL 1.54180    5.94195    5.94195    8.51103   67.08397   67.08397   54.91374
LATT -1
SFAC Li O  F  S  Fe 
Li     1  0.0653950000000 -0.2252460000000  0.0327550000000 1.0  -0.03
Li     1 -0.2252460000000  0.0653950000000 -0.4672450000000 1.0  -0.03
O      2 -0.1427400000000  0.4219070000000 -0.0359640000000 1.0   0.05
O      2 -0.2802470000000  0.3368020000000  0.2878220000000 1.0   0.05
O      2  0.1339550000000  0.3977070000000  0.1288480000000 1.0   0.01
O      2  0.1435410000000 -0.0327000000000  0.1431030000000 1.0   0.05
O      2  0.4219070000000 -0.1427400000000 -0.5359640000000 1.0   0.05
O      2  0.3368020000000 -0.2802470000000 -0.2121780000000 1.0   0.05
O      2  0.3977070000000  0.1339550000000 -0.3711520000000 1.0   0.01
O      2 -0.0327000000000  0.1435410000000 -0.3568970000000 1.0   0.05
F      3  0.0051370000000 -0.2849720000000  0.4974410000000 1.0   0.13
F      3 -0.2849720000000  0.0051370000000 -0.0025590000000 1.0   0.13
S      4 -0.0315210000000  0.2861990000000  0.1264260000000 1.0   0.01
S      4  0.2861990000000 -0.0315210000000 -0.3735740000000 1.0   0.01
Fe     5 -0.3311010000000  0.3488200000000 -0.1550780000000 1.0   3.71
Fe     5  0.3488200000000 -0.3311010000000  0.3449220000000 1.0   3.71
END
