TITL 2LiFeSO4F-200818-221502-44e8a5 -0.0403 188.546234 -7.56428882E+003 -8.00000 8.08063 16 (P-1) n - 1
REM
REM Run started: Wed, 19 Aug 2020 01:22:42 +0100 in /lustre/scratch/uccabz1/launch_tmp/launcher_2020-08-18-21-14-58-952500
REM CASTEP 20.1 from code version af48c487+ pr-geom-scf-spinfix Tue Jun 2 15:39:59 2020 +0100
REM Functional Perdew Burke Ernzerhof Relativity Koelling-Harmon Dispersion off
REM Cut-off 340.0000 eV Grid scale 1.7500 Gmax 16.5316 1/A FBSC none
REM MP grid 4 3 2 Offset 0.000 0.000 0.000 No. kpts 12 Spacing 0.07
REM Total runtime: 11548.8 s
REM Overall efficiency: 73.2857 %
REM
REM 2LiFeSO4F.cell (6abdf011d38848201efe8211ff585b1c)
REM
REM compiler GCC version 4.9.2
REM options -cpp -iprefix /lustre/shared/ucl/apps/gcc/4.9.2/bin/../lib/gcc/x86_64-unknown-linux-gnu/4.9.2/ -mtune=corei7 -march=x86-64 -g -Og
REM COMMAND_LINE
REM seed 17571564 1202284771 -1605980817 -1505871711 1227648211 1347768894 2069244800 -643729879 -406906662 1957890944 203347875 1630941205
REM
REM S 3|1.8|5|6|7|30:31:32(qc=5)
REM O 2|1.5|12|13|15|20:21(qc=5)
REM Li 1|1.3|8|9|10|10U:20(qc=5)
REM Fe 3|2.2|2.0|1.0|8|9|10|40:41:32(qc=5)
REM F 2|1.6|10|12|13|20:21(qc=5)
REM 
CELL 1.54180    4.40058    5.10746    8.41072   91.45757   90.55708   86.16092
LATT -1
SFAC Li O  F  S  Fe 
Li     1  0.0000000000000 -0.5000000000000  0.0000000000000 1.0   0.03
Li     1 -1.0000000000000 -0.5000000000000 -0.5000000000000 1.0   0.03
O      2 -0.6152530000000 -0.6464230000000 -0.3970610000000 1.0  -0.05
O      2 -0.5913360000000 -0.2310870000000 -0.2423000000000 1.0  -0.05
O      2 -0.1530160000000 -0.5536820000000 -0.2464000000000 1.0  -0.01
O      2 -0.6157170000000 -0.6523230000000 -0.1061890000000 1.0  -0.05
O      2  0.6152530000000  0.6464230000000  0.3970610000000 1.0  -0.05
O      2  0.5913360000000  0.2310870000000  0.2423000000000 1.0  -0.05
O      2  0.1530160000000  0.5536820000000  0.2464000000000 1.0  -0.01
O      2  0.6157170000000  0.6523230000000  0.1061890000000 1.0  -0.05
F      3  0.0000000000000  0.0000000000000  0.0000000000000 1.0  -0.10
F      3  0.0000000000000  0.0000000000000  0.5000000000000 1.0  -0.09
S      4 -0.4888810000000 -0.5192780000000 -0.2474040000000 1.0  -0.01
S      4  0.4888810000000  0.5192780000000  0.2474040000000 1.0  -0.01
Fe     5  0.5000000000000  1.0000000000000  0.0000000000000 1.0  -3.78
Fe     5 -0.5000000000000  0.0000000000000 -0.5000000000000 1.0  -3.75
END
