TITL 2LiFeSO4F-200804-043207-1d3aa1 0.0494 290.863497 -7.56476823E+003 8.00000 8.18507 16 (Cc) n - 1
REM
REM Run started: Tue, 04 Aug 2020 06:07:51 +0100 in /lustre/scratch/uccabz1/launch_tmp/launcher_2020-08-04-03-32-03-959482
REM CASTEP 20.1 from code version af48c487+ pr-geom-scf-spinfix Tue Jun 2 15:39:59 2020 +0100
REM Functional Perdew Burke Ernzerhof Relativity Koelling-Harmon Dispersion off
REM Cut-off 340.0000 eV Grid scale 1.7500 Gmax 16.5316 1/A FBSC none
REM MP grid 3 3 2 Offset 0.000 0.000 0.000 No. kpts 6 Spacing 0.07
REM Total runtime: 5779.78 s
REM Overall efficiency: 74.1538 %
REM
REM 2LiFeSO4F.cell (6abdf011d38848201efe8211ff585b1c)
REM
REM compiler GCC version 4.9.2
REM options -cpp -iprefix /lustre/shared/ucl/apps/gcc/4.9.2/bin/../lib/gcc/x86_64-unknown-linux-gnu/4.9.2/ -mtune=corei7 -march=x86-64 -g -Og
REM COMMAND_LINE
REM seed -619671025 -1233868342 379456374 2018443930 -1658814858 -798838498 523378509 1393265376 2017179244 -1046863837 -319251881 2134583269
REM
REM S 3|1.8|5|6|7|30:31:32(qc=5)
REM O 2|1.5|12|13|15|20:21(qc=5)
REM Li 1|1.3|8|9|10|10U:20(qc=5)
REM Fe 3|2.2|2.0|1.0|8|9|10|40:41:32(qc=5)
REM F 2|1.6|10|12|13|20:21(qc=5)
REM 
CELL 1.54180    5.47609    5.47609   10.66279  107.47109  107.47109   85.95334
LATT -1
SFAC Li O  F  S  Fe 
Li     1  0.2582130000000 -0.1146970000000 -0.3596460000000 1.0  -0.01
Li     1 -0.1146970000000  0.2582130000000  0.1403540000000 1.0  -0.01
O      2  0.5714450000000  0.3883620000000  0.0551700000000 1.0   0.01
O      2  0.1562690000000  0.1636230000000 -0.0130570000000 1.0   0.09
O      2  0.4108220000000  0.0831560000000 -0.1768400000000 1.0   0.01
O      2  0.2016430000000  0.4935850000000 -0.1171080000000 1.0   0.09
O      2  0.3883620000000  0.5714450000000  0.5551700000000 1.0   0.01
O      2  0.1636230000000  0.1562690000000  0.4869430000000 1.0   0.09
O      2  0.0831560000000  0.4108220000000  0.3231600000000 1.0   0.01
O      2  0.4935850000000  0.2016430000000  0.3828920000000 1.0   0.09
F      3 -0.1095150000000 -0.0954190000000  0.0932460000000 1.0   0.14
F      3 -0.0954190000000 -0.1095150000000 -0.4067540000000 1.0   0.14
S      4  0.3469040000000  0.2788780000000 -0.0625220000000 1.0   0.01
S      4  0.2788780000000  0.3469040000000  0.4374780000000 1.0   0.01
Fe     5  0.0862470000000 -0.1875660000000 -0.0276100000000 1.0   3.65
Fe     5 -0.1875660000000  0.0862470000000  0.4723900000000 1.0   3.65
END
