TITL 2LiFeSO4F-200819-010035-170a0a 0.0303 246.296333 -7.56503212E+003 8.00000 8.17573 16 (P2/c) n - 1
REM
REM Run started: Wed, 19 Aug 2020 02:10:27 +0100 in /lustre/scratch/uccabz1/launch_tmp/launcher_2020-08-19-00-00-32-097275
REM CASTEP 20.1 from code version af48c487+ pr-geom-scf-spinfix Tue Jun 2 15:39:59 2020 +0100
REM Functional Perdew Burke Ernzerhof Relativity Koelling-Harmon Dispersion off
REM Cut-off 340.0000 eV Grid scale 1.7500 Gmax 16.5316 1/A FBSC none
REM MP grid 4 3 2 Offset 0.000 0.000 0.000 No. kpts 6 Spacing 0.07
REM Total runtime: 4223.5 s
REM Overall efficiency: 71.7 %
REM
REM 2LiFeSO4F.cell (6abdf011d38848201efe8211ff585b1c)
REM
REM compiler GCC version 4.9.2
REM options -cpp -iprefix /lustre/shared/ucl/apps/gcc/4.9.2/bin/../lib/gcc/x86_64-unknown-linux-gnu/4.9.2/ -mtune=corei7 -march=x86-64 -g -Og
REM COMMAND_LINE
REM seed 760144279 -1426115899 806990472 -97580211 129608071 -1033796300 -46002808 275956276 -1123962006 497195142 1064552125 1402317997
REM
REM S 3|1.8|5|6|7|30:31:32(qc=5)
REM O 2|1.5|12|13|15|20:21(qc=5)
REM Li 1|1.3|8|9|10|10U:20(qc=5)
REM Fe 3|2.2|2.0|1.0|8|9|10|40:41:32(qc=5)
REM F 2|1.6|10|12|13|20:21(qc=5)
REM 
CELL 1.54180    3.93960    5.52633   11.90966   90.00000   90.00000  108.21646
LATT -1
SFAC Li O  F  S  Fe 
Li     1  0.0000000000000 -0.2500000000000  0.0230350000000 1.0  -0.01
Li     1  0.0000000000000  0.2500000000000 -0.0230350000000 1.0  -0.01
O      2 -0.3510430000000  0.0886530000000  0.2421240000000 1.0   0.07
O      2 -0.2179670000000 -0.0807700000000 -0.0926970000000 1.0   0.01
O      2  0.3510430000000  0.4113470000000  0.2421240000000 1.0   0.07
O      2  0.2179670000000  0.5807700000000 -0.0926970000000 1.0   0.01
O      2  0.3510430000000 -0.0886530000000 -0.2421240000000 1.0   0.07
O      2  0.2179670000000  0.0807700000000  0.0926970000000 1.0   0.01
O      2 -0.3510430000000 -0.4113470000000 -0.2421240000000 1.0   0.07
O      2 -0.2179670000000 -0.5807700000000  0.0926970000000 1.0   0.01
F      3  0.0000000000000 -0.2500000000000  0.3523360000000 1.0   0.13
F      3  0.0000000000000  0.2500000000000 -0.3523360000000 1.0   0.13
S      4 -0.5000000000000  0.2500000000000  0.1676540000000 1.0   0.02
S      4  0.5000000000000 -0.2500000000000 -0.1676540000000 1.0   0.02
Fe     5  0.5000000000000 -0.2500000000000  0.3132780000000 1.0   3.71
Fe     5  0.5000000000000  0.2500000000000 -0.3132780000000 1.0   3.71
END
