TITL 2LiFeSO4F-200804-051727-136fa9 -0.0452 367.828977 -7.55992698E+003 4.12159 4.62625 16 (Pmn21) n - 1
REM
REM Run started: Tue, 04 Aug 2020 08:11:26 +0100 in /lustre/scratch/uccabz1/launch_tmp/launcher_2020-08-04-04-17-25-656025
REM CASTEP 20.1 from code version af48c487+ pr-geom-scf-spinfix Tue Jun 2 15:39:59 2020 +0100
REM Functional Perdew Burke Ernzerhof Relativity Koelling-Harmon Dispersion off
REM Cut-off 340.0000 eV Grid scale 1.7500 Gmax 16.5316 1/A FBSC none
REM MP grid 3 3 2 Offset 0.000 0.000 0.000 No. kpts 4 Spacing 0.07
REM Total runtime: 12312.7 s
REM Overall efficiency: 77.3333 %
REM
REM 2LiFeSO4F.cell (6abdf011d38848201efe8211ff585b1c)
REM
REM compiler GCC version 4.9.2
REM options -cpp -iprefix /lustre/shared/ucl/apps/gcc/4.9.2/bin/../lib/gcc/x86_64-unknown-linux-gnu/4.9.2/ -mtune=corei7 -march=x86-64 -g -Og
REM COMMAND_LINE
REM seed 39901331 -647950652 -430128259 -2104094014 611385739 980896122 168466327 1465292885 -1539710277 818660640 668120073 1782361690
REM
REM S 3|1.8|5|6|7|30:31:32(qc=5)
REM O 2|1.5|12|13|15|20:21(qc=5)
REM Li 1|1.3|8|9|10|10U:20(qc=5)
REM Fe 3|2.2|2.0|1.0|8|9|10|40:41:32(qc=5)
REM F 2|1.6|10|12|13|20:21(qc=5)
REM 
CELL 1.54180    5.35333    5.71543   12.02191   90.00000   90.00000   90.00000
LATT -1
SFAC Li O  F  S  Fe 
Li     1  0.2885900000000 -0.0000000000000  0.2719920000000 1.0  -0.01
Li     1 -0.2114100000000  0.5000000000000 -0.2719920000000 1.0  -0.01
O      2  0.0320770000000  0.2323520000000  0.1959790000000 1.0   0.20
O      2 -0.0797260000000  0.2184400000000  0.6256250000000 1.0   0.00
O      2 -0.4679230000000  0.2676480000000 -0.1959790000000 1.0   0.20
O      2 -0.5797260000000  0.2815600000000 -0.6256250000000 1.0   0.00
O      2 -0.4679230000000 -0.2676480000000 -0.1959790000000 1.0   0.20
O      2 -0.5797260000000 -0.2815600000000 -0.6256250000000 1.0   0.00
O      2  0.0320770000000 -0.2323520000000  0.1959790000000 1.0   0.20
O      2 -0.0797260000000 -0.2184400000000  0.6256250000000 1.0   0.00
F      3  0.0397320000000  0.5000000000000 -0.1578350000000 1.0   0.03
F      3  0.5397320000000 -0.0000000000000  0.1578350000000 1.0   0.03
S      4 -0.0666770000000 -0.0000000000000 -0.3089600000000 1.0   0.00
S      4  0.4333230000000 -0.5000000000000  0.3089600000000 1.0   0.00
Fe     5 -0.1306580000000 -0.0000000000000  0.1710780000000 1.0   1.64
Fe     5  0.3693420000000  0.5000000000000 -0.1710780000000 1.0   1.64
END
