TITL 2LiFeSO4F-200818-191809-cf0e1b -0.0085 179.156362 -7.55899857E+003 8.00284 10.0249 16 (P-1) n - 1
REM
REM Run started: Tue, 18 Aug 2020 21:29:06 +0100 in /lustre/scratch/uccabz1/launch_tmp/launcher_2020-08-18-18-18-06-249889
REM CASTEP 20.1 from code version af48c487+ pr-geom-scf-spinfix Tue Jun 2 15:39:59 2020 +0100
REM Functional Perdew Burke Ernzerhof Relativity Koelling-Harmon Dispersion off
REM Cut-off 340.0000 eV Grid scale 1.7500 Gmax 16.5316 1/A FBSC none
REM MP grid 3 4 3 Offset 0.000 0.000 0.000 No. kpts 18 Spacing 0.07
REM Total runtime: 7973.32 s
REM Overall efficiency: 94.1111 %
REM
REM 2LiFeSO4F.cell (6abdf011d38848201efe8211ff585b1c)
REM
REM compiler GCC version 4.9.2
REM options -cpp -iprefix /lustre/shared/ucl/apps/gcc/4.9.2/bin/../lib/gcc/x86_64-unknown-linux-gnu/4.9.2/ -mtune=corei7 -march=x86-64 -g -Og
REM COMMAND_LINE
REM seed 889283337 124155363 1096656877 213904549 -1759293690 135399628 24217874 1424126073 1202098640 718379922 -1136971505 -1250926526
REM
REM S 3|1.8|5|6|7|30:31:32(qc=5)
REM O 2|1.5|12|13|15|20:21(qc=5)
REM Li 1|1.3|8|9|10|10U:20(qc=5)
REM Fe 3|2.2|2.0|1.0|8|9|10|40:41:32(qc=5)
REM F 2|1.6|10|12|13|20:21(qc=5)
REM 
CELL 1.54180    6.16481    5.00322    6.75232   87.70888  109.96685   68.70425
LATT -1
SFAC Li O  F  S  Fe 
Li     1  0.0000000000000  0.0000000000000  0.0000000000000 1.0  -0.05
Li     1  0.5000000000000  0.0000000000000  0.5000000000000 1.0   0.01
O      2 -0.2352770000000  0.0329730000000  0.1181970000000 1.0   0.12
O      2  0.0280060000000  0.3493070000000  0.2400120000000 1.0  -0.18
O      2 -0.6410560000000  0.3368810000000  0.0811610000000 1.0   0.06
O      2 -0.5449440000000  0.1931720000000 -0.2312050000000 1.0   0.24
O      2  0.2352770000000 -0.0329730000000 -0.1181970000000 1.0   0.12
O      2 -0.0280060000000 -0.3493070000000 -0.2400120000000 1.0  -0.18
O      2  0.6410560000000 -0.3368810000000 -0.0811610000000 1.0   0.06
O      2  0.5449440000000 -0.1931720000000  0.2312050000000 1.0   0.24
F      3 -0.7166860000000 -0.2281930000000 -0.5083080000000 1.0   0.21
F      3  0.7166860000000  0.2281930000000  0.5083080000000 1.0   0.21
S      4 -0.5000000000000  0.0000000000000  0.0000000000000 1.0  -0.00
S      4  0.0000000000000  0.5000000000000  0.0000000000000 1.0  -0.51
Fe     5  0.7101130000000 -0.6099120000000  0.2546790000000 1.0   3.82
Fe     5 -0.7101130000000  0.6099120000000 -0.2546790000000 1.0   3.82
END
