TITL 2LiFeSO4F-200804-034150-b14388 0.1566 271.131383 -7.56540235E+003 8.00000 8.09378 16 (Cc) n - 1
REM
REM Run started: Tue, 04 Aug 2020 06:47:04 +0100 in /lustre/scratch/uccabz1/launch_tmp/launcher_2020-08-04-02-41-46-707764
REM CASTEP 20.1 from code version af48c487+ pr-geom-scf-spinfix Tue Jun 2 15:39:59 2020 +0100
REM Functional Perdew Burke Ernzerhof Relativity Koelling-Harmon Dispersion off
REM Cut-off 340.0000 eV Grid scale 1.7500 Gmax 16.5316 1/A FBSC none
REM MP grid 3 3 3 Offset 0.000 0.000 0.000 No. kpts 10 Spacing 0.07
REM Total runtime: 12715.9 s
REM Overall efficiency: 95.3333 %
REM
REM 2LiFeSO4F.cell (6abdf011d38848201efe8211ff585b1c)
REM
REM compiler GCC version 4.9.2
REM options -cpp -iprefix /lustre/shared/ucl/apps/gcc/4.9.2/bin/../lib/gcc/x86_64-unknown-linux-gnu/4.9.2/ -mtune=corei7 -march=x86-64 -g -Og
REM COMMAND_LINE
REM seed -765988614 -1260583137 -344191627 -1416847478 -370821338 -1946003922 253285339 -1600163108 664737870 -1850375202 1289826572 -1401199725
REM
REM S 3|1.8|5|6|7|30:31:32(qc=5)
REM O 2|1.5|12|13|15|20:21(qc=5)
REM Li 1|1.3|8|9|10|10U:20(qc=5)
REM Fe 3|2.2|2.0|1.0|8|9|10|40:41:32(qc=5)
REM F 2|1.6|10|12|13|20:21(qc=5)
REM 
CELL 1.54180    8.04631    8.04631    5.82914   64.51555   64.51555   55.27213
LATT -1
SFAC Li O  F  S  Fe 
Li     1  0.0804720000000  0.2326520000000  0.2182680000000 1.0  -0.01
Li     1  0.2326520000000  0.0804720000000 -0.2817320000000 1.0  -0.01
O      2  0.2423190000000 -0.4051580000000  0.1051770000000 1.0   0.08
O      2  0.2275790000000 -0.2916770000000 -0.3508130000000 1.0   0.07
O      2 -0.0976360000000 -0.1641960000000 -0.0062490000000 1.0   0.06
O      2  0.0855730000000 -0.5289960000000 -0.0269290000000 1.0   0.02
O      2 -0.4051580000000  0.2423190000000  0.6051770000000 1.0   0.08
O      2 -0.2916770000000  0.2275790000000  0.1491870000000 1.0   0.07
O      2 -0.1641960000000 -0.0976360000000  0.4937510000000 1.0   0.06
O      2 -0.5289960000000  0.0855730000000  0.4730710000000 1.0   0.02
F      3  0.0133910000000  0.1882430000000 -0.4251800000000 1.0   0.06
F      3  0.1882430000000  0.0133910000000  0.0748200000000 1.0   0.06
S      4  0.1110760000000 -0.3494270000000 -0.0691790000000 1.0   0.02
S      4 -0.3494270000000  0.1110760000000  0.4308210000000 1.0   0.02
Fe     5  0.1474920000000 -0.2329350000000  0.3367030000000 1.0   3.71
Fe     5 -0.2329350000000  0.1474920000000 -0.1632970000000 1.0   3.71
END
