TITL 2LiFeSO4F-200819-000410-a779d9 0.0341 300.465398 -7.56198027E+003 8.00000 8.19347 16 (Pba2) n - 1
REM
REM Run started: Wed, 19 Aug 2020 00:34:43 +0100 in /lustre/scratch/uccabz1/launch_tmp/launcher_2020-08-18-23-04-05-819377
REM CASTEP 20.1 from code version af48c487+ pr-geom-scf-spinfix Tue Jun 2 15:39:59 2020 +0100
REM Functional Perdew Burke Ernzerhof Relativity Koelling-Harmon Dispersion off
REM Cut-off 340.0000 eV Grid scale 1.7500 Gmax 16.5316 1/A FBSC none
REM MP grid 4 2 2 Offset 0.000 0.000 0.000 No. kpts 2 Spacing 0.07
REM Total runtime: 1983.8 s
REM Overall efficiency: 76.1111 %
REM
REM 2LiFeSO4F.cell (6abdf011d38848201efe8211ff585b1c)
REM
REM compiler GCC version 4.9.2
REM options -cpp -iprefix /lustre/shared/ucl/apps/gcc/4.9.2/bin/../lib/gcc/x86_64-unknown-linux-gnu/4.9.2/ -mtune=corei7 -march=x86-64 -g -Og
REM COMMAND_LINE
REM seed -784167233 1819675144 1076203355 1304488486 345430612 -166119145 249106785 1392735222 -1006831021 -1343588015 582382956 395147917
REM
REM S 3|1.8|5|6|7|30:31:32(qc=5)
REM O 2|1.5|12|13|15|20:21(qc=5)
REM Li 1|1.3|8|9|10|10U:20(qc=5)
REM Fe 3|2.2|2.0|1.0|8|9|10|40:41:32(qc=5)
REM F 2|1.6|10|12|13|20:21(qc=5)
REM 
CELL 1.54180    3.67685   10.85870    7.52559   90.00000   90.00000   90.00000
LATT -1
SFAC Li O  F  S  Fe 
Li     1 -0.0000000000000 -0.0000000000000  0.3372990000000 1.0  -0.01
Li     1  0.5000000000000  0.5000000000000  0.3372990000000 1.0  -0.01
O      2 -0.2911980000000 -0.0856160000000 -0.5070910000000 1.0   0.01
O      2 -0.2767960000000  0.0815480000000 -0.2648070000000 1.0   0.11
O      2  0.2911980000000  0.0856160000000 -0.5070910000000 1.0   0.01
O      2  0.2767960000000 -0.0815480000000 -0.2648070000000 1.0   0.11
O      2 -0.2088020000000  0.4143840000000 -0.5070910000000 1.0   0.01
O      2 -0.2232040000000  0.5815480000000 -0.2648070000000 1.0   0.11
O      2  0.2088020000000 -0.4143840000000 -0.5070910000000 1.0   0.01
O      2  0.2232040000000 -0.5815480000000 -0.2648070000000 1.0   0.11
F      3  0.5000000000000 -0.0000000000000  0.0736840000000 1.0   0.06
F      3 -0.0000000000000 -0.5000000000000  0.0736840000000 1.0   0.06
S      4 -0.5000000000000 -0.0000000000000 -0.3907150000000 1.0   0.00
S      4 -0.0000000000000 -0.5000000000000 -0.3907150000000 1.0   0.00
Fe     5 -0.0000000000000 -0.0000000000000 -0.0730350000000 1.0   3.69
Fe     5  0.5000000000000 -0.5000000000000 -0.0730350000000 1.0   3.69
END
