TITL 2LiFeSO4F-200804-041431-c0c377 0.0088 304.348764 -7.56073485E+003 6.01514 7.00862 16 (Cm) n - 1
REM
REM Run started: Tue, 04 Aug 2020 06:17:26 +0100 in /lustre/scratch/uccabz1/launch_tmp/launcher_2020-08-04-03-14-29-652191
REM CASTEP 20.1 from code version af48c487+ pr-geom-scf-spinfix Tue Jun 2 15:39:59 2020 +0100
REM Functional Perdew Burke Ernzerhof Relativity Koelling-Harmon Dispersion off
REM Cut-off 340.0000 eV Grid scale 1.7500 Gmax 16.5316 1/A FBSC none
REM MP grid 3 2 2 Offset 0.000 0.000 0.000 No. kpts 5 Spacing 0.07
REM Total runtime: 8002.33 s
REM Overall efficiency: 76 %
REM
REM 2LiFeSO4F.cell (6abdf011d38848201efe8211ff585b1c)
REM
REM compiler GCC version 4.9.2
REM options -cpp -iprefix /lustre/shared/ucl/apps/gcc/4.9.2/bin/../lib/gcc/x86_64-unknown-linux-gnu/4.9.2/ -mtune=corei7 -march=x86-64 -g -Og
REM COMMAND_LINE
REM seed -1223410975 2002340308 -112587802 -1735096991 -862695676 -939455331 -905784778 -2103254395 1313045825 1435048853 -1513428009 -605969544
REM
REM S 3|1.8|5|6|7|30:31:32(qc=5)
REM O 2|1.5|12|13|15|20:21(qc=5)
REM Li 1|1.3|8|9|10|10U:20(qc=5)
REM Fe 3|2.2|2.0|1.0|8|9|10|40:41:32(qc=5)
REM F 2|1.6|10|12|13|20:21(qc=5)
REM 
CELL 1.54180    5.67045    7.61854    7.61854   84.32647  105.89097  105.89097
LATT -1
SFAC Li O  F  S  Fe 
Li     1 -0.1203130000000  0.1626580000000  0.1626580000000 1.0   0.01
Li     1  0.0070730000000 -0.4482510000000 -0.4482510000000 1.0   0.00
O      2 -0.2996170000000  0.6489170000000 -0.1021380000000 1.0  -0.01
O      2 -0.2938470000000  0.6419730000000  0.3904840000000 1.0   0.23
O      2  0.2340070000000  0.3728700000000  0.1344360000000 1.0   0.02
O      2 -0.3519410000000  0.2653330000000 -0.0165520000000 1.0   0.31
O      2 -0.2996170000000 -0.1021380000000  0.6489170000000 1.0  -0.01
O      2 -0.2938470000000  0.3904840000000  0.6419730000000 1.0   0.23
O      2  0.2340070000000  0.1344360000000  0.3728700000000 1.0   0.02
O      2 -0.3519410000000 -0.0165520000000  0.2653330000000 1.0   0.31
F      3  0.2485130000000  0.4270070000000 -0.3051270000000 1.0   0.12
F      3  0.2485130000000 -0.3051270000000  0.4270070000000 1.0   0.12
S      4 -0.3934410000000 -0.1807300000000 -0.1807300000000 1.0  -0.29
S      4 -0.6061240000000  0.2848440000000  0.2848440000000 1.0   0.02
Fe     5 -0.4309590000000 -0.1961300000000  0.3973200000000 1.0   2.47
Fe     5 -0.4309590000000  0.3973200000000 -0.1961300000000 1.0   2.47
END
