TITL 2LiFeSO4F-200819-021601-d40554 0.0543 227.638164 -7.56542196E+003 7.99937 8.16414 16 (Cc) n - 1
REM
REM Run started: Wed, 19 Aug 2020 05:37:59 +0100 in /scratch/scratch/uccabz1/launch_tmp/launcher_2020-08-19-01-15-57-910905
REM CASTEP 19.11| from code version Version unavailable
REM Functional Perdew Burke Ernzerhof Relativity Koelling-Harmon Dispersion off
REM Cut-off 340.0000 eV Grid scale 1.7500 Gmax 16.5316 1/A FBSC none
REM MP grid 4 4 2 Offset 0.000 0.000 0.000 No. kpts 16 Spacing 0.07
REM Total runtime: 12204.4 s
REM Overall efficiency: 95 %
REM
REM 2LiFeSO4F.cell (6abdf011d38848201efe8211ff585b1c)
REM
REM compiler GCC version 4.9.2
REM options -cpp -iprefix /scratch/UCL/applications/gcc/4.9.2/bin/../lib/gcc/x86_64-unknown-linux-gnu/4.9.2/ -mtune=corei7 -march=x86-64 -g -O2
REM COMMAND_LINE
REM seed 1509379477 1461483561 1695735048 663349062 97529381 692892250 395884026 517196573 670316431 -1643071688 451999128 -1429677524
REM
REM S 3|1.8|5|6|7|30:31:32(qc=5)
REM O 2|1.5|12|13|15|20:21(qc=5)
REM Li 1|1.3|8|9|10|10U:20(qc=5)
REM Fe 3|2.2|2.0|1.0|8|9|10|40:41:32(qc=5)
REM F 2|1.6|10|12|13|20:21(qc=5)
REM 
CELL 1.54180    4.96966    5.11060   12.67066  120.86744   90.00000  119.09191
LATT -1
SFAC Li O  F  S  Fe 
Li     1  0.1144440000000 -0.2722910000000  0.4122650000000 1.0  -0.03
Li     1  0.1132650000000 -0.2722910000000 -0.0877350000000 1.0  -0.03
O      2 -0.1167650000000 -0.2551470000000 -0.4608560000000 1.0   0.04
O      2 -0.6243830000000 -0.7234690000000 -0.4697390000000 1.0   0.03
O      2 -0.6436710000000 -0.5127950000000 -0.6052600000000 1.0   0.04
O      2 -0.4928860000000 -0.0978630000000 -0.3685450000000 1.0   0.05
O      2 -0.6383820000000 -0.2551470000000  0.0391440000000 1.0   0.04
O      2 -0.5990860000000 -0.7234690000000  0.0302610000000 1.0   0.03
O      2 -0.3691240000000 -0.5127950000000 -0.1052600000000 1.0   0.04
O      2 -0.1049770000000 -0.0978630000000  0.1314550000000 1.0   0.05
F      3  0.2025900000000  0.5391120000000 -0.2323000000000 1.0   0.12
F      3 -0.1634780000000  0.5391120000000  0.2677000000000 1.0   0.12
S      4 -0.4695240000000 -0.3980020000000 -0.4755080000000 1.0   0.02
S      4 -0.4284780000000 -0.3980020000000  0.0244920000000 1.0   0.02
Fe     5  0.3815840000000  0.2231330000000  0.1980630000000 1.0   3.72
Fe     5  0.3415500000000  0.2231330000000 -0.3019370000000 1.0   3.72
END
