TITL 2LiFeSO4F-200804-023056-bbd122 -0.0461 265.015014 -7.56559722E+003 8.00064 8.17688 16 (Cc) n - 1
REM
REM Run started: Tue, 04 Aug 2020 06:10:18 +0100 in /lustre/scratch/uccabz1/launch_tmp/launcher_2020-08-04-01-30-51-178926
REM CASTEP 20.1 from code version af48c487+ pr-geom-scf-spinfix Tue Jun 2 15:39:59 2020 +0100
REM Functional Perdew Burke Ernzerhof Relativity Koelling-Harmon Dispersion off
REM Cut-off 340.0000 eV Grid scale 1.7500 Gmax 16.5316 1/A FBSC none
REM MP grid 3 3 3 Offset 0.000 0.000 0.000 No. kpts 10 Spacing 0.07
REM Total runtime: 13223.3 s
REM Overall efficiency: 94.4167 %
REM
REM 2LiFeSO4F.cell (6abdf011d38848201efe8211ff585b1c)
REM
REM compiler GCC version 4.9.2
REM options -cpp -iprefix /lustre/shared/ucl/apps/gcc/4.9.2/bin/../lib/gcc/x86_64-unknown-linux-gnu/4.9.2/ -mtune=corei7 -march=x86-64 -g -Og
REM COMMAND_LINE
REM seed 1941425520 305243814 -1459494666 2093567692 1796281164 1559679880 1702069951 1941507945 981576642 -885554505 -2085089375 1603976162
REM
REM S 3|1.8|5|6|7|30:31:32(qc=5)
REM O 2|1.5|12|13|15|20:21(qc=5)
REM Li 1|1.3|8|9|10|10U:20(qc=5)
REM Fe 3|2.2|2.0|1.0|8|9|10|40:41:32(qc=5)
REM F 2|1.6|10|12|13|20:21(qc=5)
REM 
CELL 1.54180    6.26080    7.77515    7.60513  120.74229  118.40219   90.00000
LATT -1
SFAC Li O  F  S  Fe 
Li     1 -0.5329270000000 -0.0792900000000 -0.3283920000000 1.0  -0.02
Li     1 -0.0329270000000 -0.2491020000000 -0.3283920000000 1.0  -0.02
O      2  0.6280650000000 -0.1323320000000  0.3011750000000 1.0   0.08
O      2  0.1863140000000 -0.2578770000000 -0.0528220000000 1.0   0.02
O      2  0.4159440000000  0.1207090000000  0.2508460000000 1.0   0.08
O      2  0.2864580000000 -0.0836640000000  0.3671040000000 1.0   0.06
O      2  0.1280650000000  0.4335070000000  0.3011750000000 1.0   0.08
O      2 -0.3136860000000  0.2050550000000 -0.0528220000000 1.0   0.02
O      2 -0.0840560000000  0.1301370000000  0.2508460000000 1.0   0.08
O      2 -0.2135420000000  0.4507670000000  0.3671040000000 1.0   0.06
F      3  0.1363820000000 -0.0903230000000 -0.3681320000000 1.0   0.08
F      3 -0.3636180000000 -0.2778090000000 -0.3681320000000 1.0   0.08
S      4  0.3749200000000 -0.0913720000000  0.2090810000000 1.0   0.02
S      4 -0.1250800000000  0.3004530000000  0.2090810000000 1.0   0.02
Fe     5  0.4744760000000  0.4179970000000  0.3831360000000 1.0   3.67
Fe     5 -0.0255240000000 -0.0348610000000  0.3831360000000 1.0   3.67
END
