TITL 2LiFeSO4F-200818-234355-8a37b6 -0.0580 174.509271 -7.55750931E+003 8.00433 9.00044 16 (P2/c) n - 1
REM
REM Run started: Wed, 19 Aug 2020 00:23:11 +0100 in /scratch/scratch/uccabz1/launch_tmp/launcher_2020-08-18-22-43-53-722828
REM CASTEP 19.11| from code version Version unavailable
REM Functional Perdew Burke Ernzerhof Relativity Koelling-Harmon Dispersion off
REM Cut-off 340.0000 eV Grid scale 1.7500 Gmax 16.5316 1/A FBSC none
REM MP grid 3 3 3 Offset 0.000 0.000 0.000 No. kpts 10 Spacing 0.07
REM Total runtime: 2642.97 s
REM Overall efficiency: 87.4286 %
REM
REM 2LiFeSO4F.cell (6abdf011d38848201efe8211ff585b1c)
REM
REM compiler GCC version 4.9.2
REM options -cpp -iprefix /scratch/UCL/applications/gcc/4.9.2/bin/../lib/gcc/x86_64-unknown-linux-gnu/4.9.2/ -mtune=corei7 -march=x86-64 -g -O2
REM COMMAND_LINE
REM seed 1459074762 -1923842408 -688747923 834521197 687160472 1089015036 602042941 2121322643 1270462475 -2074666111 -689026712 187004399
REM
REM S 3|1.8|5|6|7|30:31:32(qc=5)
REM O 2|1.5|12|13|15|20:21(qc=5)
REM Li 1|1.3|8|9|10|10U:20(qc=5)
REM Fe 3|2.2|2.0|1.0|8|9|10|40:41:32(qc=5)
REM F 2|1.6|10|12|13|20:21(qc=5)
REM 
CELL 1.54180    5.14523    4.93183    6.96772   80.74936   90.00000   90.00000
LATT -1
SFAC Li O  F  S  Fe 
Li     1  0.0000000000000  0.5000000000000  0.0000000000000 1.0  -0.06
Li     1  0.0000000000000  0.5000000000000  0.5000000000000 1.0  -0.06
O      2 -0.2101420000000 -0.8746630000000  0.0300330000000 1.0   0.12
O      2 -0.3704810000000 -0.7826270000000 -0.3790930000000 1.0   0.09
O      2 -0.2101420000000 -0.1253370000000 -0.5300330000000 1.0   0.12
O      2 -0.3704810000000 -0.2173730000000 -0.1209070000000 1.0   0.09
O      2  0.2101420000000  0.8746630000000 -0.0300330000000 1.0   0.12
O      2  0.3704810000000  0.7826270000000  0.3790930000000 1.0   0.09
O      2  0.2101420000000  0.1253370000000  0.5300330000000 1.0   0.12
O      2  0.3704810000000  0.2173730000000  0.1209070000000 1.0   0.09
F      3 -0.0426320000000  0.5000000000000  0.2500000000000 1.0   0.06
F      3  0.0426320000000 -0.5000000000000 -0.2500000000000 1.0   0.06
S      4 -0.5000000000000  0.0000000000000  0.0000000000000 1.0  -0.23
S      4  0.5000000000000  1.0000000000000  0.5000000000000 1.0  -0.23
Fe     5 -0.0498790000000  0.0000000000000 -0.2500000000000 1.0   3.81
Fe     5  0.0498790000000  0.0000000000000  0.2500000000000 1.0   3.81
END
