TITL 2LiFeSO4F-200819-030242-1e2d78 -0.1647 282.590844 -7.56482607E+003 8.00000 8.08538 16 (P2) n - 1
REM
REM Run started: Wed, 19 Aug 2020 05:19:26 +0100 in /lustre/scratch/uccabz1/launch_tmp/launcher_2020-08-19-02-02-40-032575
REM CASTEP 20.1 from code version af48c487+ pr-geom-scf-spinfix Tue Jun 2 15:39:59 2020 +0100
REM Functional Perdew Burke Ernzerhof Relativity Koelling-Harmon Dispersion off
REM Cut-off 340.0000 eV Grid scale 1.7500 Gmax 16.5316 1/A FBSC none
REM MP grid 3 3 2 Offset 0.000 0.000 0.000 No. kpts 6 Spacing 0.07
REM Total runtime: 9075.54 s
REM Overall efficiency: 77.5833 %
REM
REM 2LiFeSO4F.cell (6abdf011d38848201efe8211ff585b1c)
REM
REM compiler GCC version 4.9.2
REM options -cpp -iprefix /lustre/shared/ucl/apps/gcc/4.9.2/bin/../lib/gcc/x86_64-unknown-linux-gnu/4.9.2/ -mtune=corei7 -march=x86-64 -g -Og
REM COMMAND_LINE
REM seed -224558920 396115453 -2143862059 -1593597030 -1927976982 -887390349 1199459416 1918963843 1469115466 -155848853 82497936 150231127
REM
REM S 3|1.8|5|6|7|30:31:32(qc=5)
REM O 2|1.5|12|13|15|20:21(qc=5)
REM Li 1|1.3|8|9|10|10U:20(qc=5)
REM Fe 3|2.2|2.0|1.0|8|9|10|40:41:32(qc=5)
REM F 2|1.6|10|12|13|20:21(qc=5)
REM 
CELL 1.54180    5.18637    6.09058    8.97846   94.86311   90.00000   90.00000
LATT -1
SFAC Li O  F  S  Fe 
Li     1  0.2926100000000  0.4076320000000 -0.2987630000000 1.0  -0.01
Li     1  0.2926100000000 -0.4076320000000  0.2987630000000 1.0  -0.01
O      2 -0.3608310000000  0.0175600000000 -0.2122190000000 1.0   0.07
O      2 -0.3565040000000  0.4164310000000 -0.2253290000000 1.0   0.05
O      2  0.0353290000000  0.1953970000000 -0.2915290000000 1.0   0.02
O      2 -0.0984660000000  0.2540240000000 -0.0306240000000 1.0   0.05
O      2 -0.3608310000000 -0.0175600000000  0.2122190000000 1.0   0.07
O      2 -0.3565040000000 -0.4164310000000  0.2253290000000 1.0   0.05
O      2  0.0353290000000 -0.1953970000000  0.2915290000000 1.0   0.02
O      2 -0.0984660000000 -0.2540240000000  0.0306240000000 1.0   0.05
F      3  0.1241920000000 -0.3394270000000 -0.2940890000000 1.0   0.11
F      3  0.1241920000000  0.3394270000000  0.2940890000000 1.0   0.11
S      4 -0.1876860000000  0.2188610000000 -0.1896520000000 1.0   0.01
S      4 -0.1876860000000 -0.2188610000000  0.1896520000000 1.0   0.01
Fe     5 -0.1915390000000 -0.2712930000000 -0.1910790000000 1.0   3.71
Fe     5 -0.1915390000000  0.2712930000000  0.1910790000000 1.0   3.71
END
