TITL 2LiFeSO4F-200818-210652-4054e0 0.0488 241.201744 -7.56603425E+003 8.00000 8.12793 16 (P-1) n - 1
REM
REM Run started: Wed, 19 Aug 2020 00:43:06 +0100 in /lustre/scratch/uccabz1/launch_tmp/launcher_2020-08-18-20-06-46-323445
REM CASTEP 20.1 from code version af48c487+ pr-geom-scf-spinfix Tue Jun 2 15:39:59 2020 +0100
REM Functional Perdew Burke Ernzerhof Relativity Koelling-Harmon Dispersion off
REM Cut-off 340.0000 eV Grid scale 1.7500 Gmax 16.5316 1/A FBSC none
REM MP grid 3 3 3 Offset 0.000 0.000 0.000 No. kpts 14 Spacing 0.07
REM Total runtime: 13096.4 s
REM Overall efficiency: 95.0909 %
REM
REM 2LiFeSO4F.cell (6abdf011d38848201efe8211ff585b1c)
REM
REM compiler GCC version 4.9.2
REM options -cpp -iprefix /lustre/shared/ucl/apps/gcc/4.9.2/bin/../lib/gcc/x86_64-unknown-linux-gnu/4.9.2/ -mtune=corei7 -march=x86-64 -g -Og
REM COMMAND_LINE
REM seed 1115624928 -1535109522 -708183862 1075257710 -1556791139 608145667 -1272307603 2077511996 1086777628 634462876 686585319 1104125096
REM
REM S 3|1.8|5|6|7|30:31:32(qc=5)
REM O 2|1.5|12|13|15|20:21(qc=5)
REM Li 1|1.3|8|9|10|10U:20(qc=5)
REM Fe 3|2.2|2.0|1.0|8|9|10|40:41:32(qc=5)
REM F 2|1.6|10|12|13|20:21(qc=5)
REM 
CELL 1.54180    7.75812    7.21035    5.25275   81.07900   66.20540   63.83006
LATT -1
SFAC Li O  F  S  Fe 
Li     1  0.4439240000000 -0.3000000000000  0.5613880000000 1.0  -0.02
Li     1 -0.4439240000000  0.3000000000000 -0.5613880000000 1.0  -0.02
O      2 -0.2221810000000 -0.1918450000000  0.0698170000000 1.0   0.07
O      2 -0.3146000000000 -0.2571890000000  0.5688140000000 1.0   0.06
O      2 -0.2196960000000  0.0353680000000  0.3689120000000 1.0   0.02
O      2  0.0466730000000 -0.3192080000000  0.2774810000000 1.0   0.07
O      2  0.2221810000000  0.1918450000000 -0.0698170000000 1.0   0.07
O      2  0.3146000000000  0.2571890000000 -0.5688140000000 1.0   0.06
O      2  0.2196960000000 -0.0353680000000 -0.3689120000000 1.0   0.02
O      2 -0.0466730000000  0.3192080000000 -0.2774810000000 1.0   0.07
F      3 -0.4341860000000 -0.4654410000000  0.2295850000000 1.0   0.09
F      3  0.4341860000000  0.4654410000000 -0.2295850000000 1.0   0.09
S      4 -0.1762750000000 -0.1780620000000  0.3177100000000 1.0   0.01
S      4  0.1762750000000  0.1780620000000 -0.3177100000000 1.0   0.01
Fe     5  0.2411120000000  0.4032490000000  0.1067100000000 1.0   3.69
Fe     5 -0.2411120000000 -0.4032490000000 -0.1067100000000 1.0   3.69
END
