TITL 2LiFeSO4F-200804-045137-cbf2d7 0.0452 223.038458 -7.56489150E+003 7.99977 8.05169 16 (P21) n - 1
REM
REM Run started: Tue, 04 Aug 2020 06:04:47 +0100 in /lustre/scratch/uccabz1/launch_tmp/launcher_2020-08-04-03-51-35-242002
REM CASTEP 20.1 from code version af48c487+ pr-geom-scf-spinfix Tue Jun 2 15:39:59 2020 +0100
REM Functional Perdew Burke Ernzerhof Relativity Koelling-Harmon Dispersion off
REM Cut-off 340.0000 eV Grid scale 1.7500 Gmax 16.5316 1/A FBSC none
REM MP grid 4 4 2 Offset 0.000 0.000 0.000 No. kpts 8 Spacing 0.07
REM Total runtime: 4442.67 s
REM Overall efficiency: 82.2222 %
REM
REM 2LiFeSO4F.cell (6abdf011d38848201efe8211ff585b1c)
REM
REM compiler GCC version 4.9.2
REM options -cpp -iprefix /lustre/shared/ucl/apps/gcc/4.9.2/bin/../lib/gcc/x86_64-unknown-linux-gnu/4.9.2/ -mtune=corei7 -march=x86-64 -g -Og
REM COMMAND_LINE
REM seed -1455262503 1933819989 355730406 -1758883677 1496664687 1456452639 1212473017 899111424 -849118672 604572214 759587429 1611425212
REM
REM S 3|1.8|5|6|7|30:31:32(qc=5)
REM O 2|1.5|12|13|15|20:21(qc=5)
REM Li 1|1.3|8|9|10|10U:20(qc=5)
REM Fe 3|2.2|2.0|1.0|8|9|10|40:41:32(qc=5)
REM F 2|1.6|10|12|13|20:21(qc=5)
REM 
CELL 1.54180    5.18752    4.79930    9.85020   90.00000   90.00000  114.56530
LATT -1
SFAC Li O  F  S  Fe 
Li     1  0.0839420000000  0.0978860000000 -0.3057690000000 1.0  -0.02
Li     1 -0.0839420000000 -0.0978860000000  0.1942310000000 1.0  -0.02
O      2 -0.4874650000000 -0.4550780000000  0.4373230000000 1.0   0.06
O      2  0.0210900000000 -0.2226790000000  0.3777020000000 1.0   0.04
O      2 -0.2063420000000 -0.7454570000000  0.4774310000000 1.0   0.05
O      2 -0.1214580000000 -0.2935720000000  0.6191400000000 1.0   0.01
O      2  0.4874650000000  0.4550780000000 -0.0626770000000 1.0   0.06
O      2 -0.0210900000000  0.2226790000000 -0.1222980000000 1.0   0.04
O      2  0.2063420000000  0.7454570000000 -0.0225690000000 1.0   0.05
O      2  0.1214580000000  0.2935720000000  0.1191400000000 1.0   0.01
F      3  0.5801040000000 -0.0685860000000  0.2065420000000 1.0   0.13
F      3 -0.5801040000000  0.0685860000000 -0.2934580000000 1.0   0.13
S      4 -0.1983110000000 -0.4271480000000  0.4825990000000 1.0   0.01
S      4  0.1983110000000  0.4271480000000 -0.0174010000000 1.0   0.01
Fe     5  0.5525630000000  0.0727450000000 -0.1142720000000 1.0   3.71
Fe     5 -0.5525630000000 -0.0727450000000  0.3857280000000 1.0   3.71
END
