TITL 2LiFeSO4F-200804-021505-936a9f -0.0071 277.452020 -7.55953804E+003 7.95591 8.18766 16 (Cmc21) n - 1
REM
REM Run started: Tue, 04 Aug 2020 03:26:54 +0100 in /lustre/scratch/uccabz1/launch_tmp/launcher_2020-08-04-01-14-57-162719
REM CASTEP 20.1 from code version af48c487+ pr-geom-scf-spinfix Tue Jun 2 15:39:59 2020 +0100
REM Functional Perdew Burke Ernzerhof Relativity Koelling-Harmon Dispersion off
REM Cut-off 340.0000 eV Grid scale 1.7500 Gmax 16.5316 1/A FBSC none
REM MP grid 3 2 3 Offset 0.000 0.000 0.000 No. kpts 4 Spacing 0.07
REM Total runtime: 4524.32 s
REM Overall efficiency: 75.6 %
REM
REM 2LiFeSO4F.cell (6abdf011d38848201efe8211ff585b1c)
REM
REM compiler GCC version 4.9.2
REM options -cpp -iprefix /lustre/shared/ucl/apps/gcc/4.9.2/bin/../lib/gcc/x86_64-unknown-linux-gnu/4.9.2/ -mtune=corei7 -march=x86-64 -g -Og
REM COMMAND_LINE
REM seed 1012109768 1190581829 -1730345486 -1498401754 -933569612 854771042 -268771763 1796102680 1950498071 1985338125 341800041 -1629771609
REM
REM S 3|1.8|5|6|7|30:31:32(qc=5)
REM O 2|1.5|12|13|15|20:21(qc=5)
REM Li 1|1.3|8|9|10|10U:20(qc=5)
REM Fe 3|2.2|2.0|1.0|8|9|10|40:41:32(qc=5)
REM F 2|1.6|10|12|13|20:21(qc=5)
REM 
CELL 1.54180    5.68521    9.11589    6.06143   90.00000  117.96718   90.00000
LATT -1
SFAC Li O  F  S  Fe 
Li     1 -0.4675230000000  0.0693580000000  0.0649540000000 1.0  -0.01
Li     1  0.4675230000000 -0.4306420000000 -0.0649540000000 1.0  -0.01
O      2  0.1785650000000  0.1362750000000 -0.1993900000000 1.0   0.41
O      2  0.0841240000000  0.4699450000000 -0.2618610000000 1.0   0.03
O      2 -0.1785650000000 -0.3637250000000  0.1993900000000 1.0   0.41
O      2 -0.0841250000000 -0.0300550000000  0.2618610000000 1.0   0.03
O      2  0.3779550000000 -0.3637250000000  0.1993900000000 1.0   0.41
O      2  0.3459850000000 -0.0300550000000  0.2618610000000 1.0   0.03
O      2 -0.3779550000000  0.1362750000000 -0.1993900000000 1.0   0.41
O      2 -0.3459850000000  0.4699450000000 -0.2618610000000 1.0   0.03
F      3 -0.1648000000000 -0.2162840000000 -0.3296000000000 1.0   0.14
F      3  0.1648000000000  0.2837160000000  0.3295990000000 1.0   0.14
S      4 -0.0799200000000  0.3981870000000 -0.1598390000000 1.0   0.04
S      4  0.0799190000000 -0.1018130000000  0.1598390000000 1.0   0.04
Fe     5  0.3012580000000  0.1667870000000 -0.3974850000000 1.0   2.91
Fe     5 -0.3012580000000 -0.3332130000000  0.3974840000000 1.0   2.91
END
