TITL 2LiFeSO4F-200804-035235-f2a961 -0.0602 272.362146 -7.56016697E+003 7.99894 8.15513 16 (Pcc2) n - 1
REM
REM Run started: Tue, 04 Aug 2020 04:28:03 +0100 in /lustre/scratch/uccabz1/launch_tmp/launcher_2020-08-04-02-52-32-487331
REM CASTEP 20.1 from code version af48c487+ pr-geom-scf-spinfix Tue Jun 2 15:39:59 2020 +0100
REM Functional Perdew Burke Ernzerhof Relativity Koelling-Harmon Dispersion off
REM Cut-off 340.0000 eV Grid scale 1.7500 Gmax 16.5316 1/A FBSC none
REM MP grid 5 2 2 Offset 0.000 0.000 0.000 No. kpts 3 Spacing 0.07
REM Total runtime: 2357.17 s
REM Overall efficiency: 74.2857 %
REM
REM 2LiFeSO4F.cell (6abdf011d38848201efe8211ff585b1c)
REM
REM compiler GCC version 4.9.2
REM options -cpp -iprefix /lustre/shared/ucl/apps/gcc/4.9.2/bin/../lib/gcc/x86_64-unknown-linux-gnu/4.9.2/ -mtune=corei7 -march=x86-64 -g -Og
REM COMMAND_LINE
REM seed -1436389813 -826780471 -889262967 -1026007894 870347903 349677022 -78067281 185930988 -1650915004 1464803904 -44964331 1938953913
REM
REM S 3|1.8|5|6|7|30:31:32(qc=5)
REM O 2|1.5|12|13|15|20:21(qc=5)
REM Li 1|1.3|8|9|10|10U:20(qc=5)
REM Fe 3|2.2|2.0|1.0|8|9|10|40:41:32(qc=5)
REM F 2|1.6|10|12|13|20:21(qc=5)
REM 
CELL 1.54180    3.30924    7.45772   11.03601   90.00000   90.00000   90.00000
LATT -1
SFAC Li O  F  S  Fe 
Li     1  0.5000000000000 -0.5000000000000 -0.0748740000000 1.0   0.01
Li     1 -0.5000000000000  0.5000000000000  0.4251260000000 1.0   0.01
O      2 -0.3173440000000 -0.1469960000000  0.0138330000000 1.0   0.00
O      2 -0.1956400000000 -0.3522250000000  0.3108220000000 1.0   0.46
O      2  0.3173440000000  0.1469960000000  0.0138330000000 1.0   0.00
O      2  0.1956400000000  0.3522250000000  0.3108220000000 1.0   0.46
O      2  0.3173440000000 -0.1469960000000 -0.4861670000000 1.0   0.00
O      2  0.1956400000000 -0.3522250000000 -0.1891780000000 1.0   0.46
O      2 -0.3173440000000  0.1469960000000 -0.4861670000000 1.0   0.00
O      2 -0.1956400000000  0.3522250000000 -0.1891780000000 1.0   0.46
F      3 -0.5000000000000  0.5000000000000  0.0966930000000 1.0   0.09
F      3  0.5000000000000 -0.5000000000000 -0.4033070000000 1.0   0.09
S      4  0.5000000000000  0.0000000000000 -0.0558860000000 1.0   0.00
S      4  0.5000000000000  0.0000000000000  0.4441140000000 1.0   0.00
Fe     5  0.0000000000000 -0.5000000000000  0.2131700000000 1.0   2.99
Fe     5  0.0000000000000 -0.5000000000000 -0.2868300000000 1.0   2.99
END
