TITL 2LiFeSO4F-200804-040944-3af726 0.0289 235.059585 -7.56554802E+003 8.00000 8.13645 16 (C2) n - 1
REM
REM Run started: Tue, 04 Aug 2020 06:49:54 +0100 in /lustre/scratch/uccabz1/launch_tmp/launcher_2020-08-04-03-09-42-875717
REM CASTEP 20.1 from code version af48c487+ pr-geom-scf-spinfix Tue Jun 2 15:39:59 2020 +0100
REM Functional Perdew Burke Ernzerhof Relativity Koelling-Harmon Dispersion off
REM Cut-off 340.0000 eV Grid scale 1.7500 Gmax 16.5316 1/A FBSC none
REM MP grid 3 3 3 Offset 0.000 0.000 0.000 No. kpts 10 Spacing 0.07
REM Total runtime: 9664.66 s
REM Overall efficiency: 85.5455 %
REM
REM 2LiFeSO4F.cell (6abdf011d38848201efe8211ff585b1c)
REM
REM compiler GCC version 4.9.2
REM options -cpp -iprefix /lustre/shared/ucl/apps/gcc/4.9.2/bin/../lib/gcc/x86_64-unknown-linux-gnu/4.9.2/ -mtune=corei7 -march=x86-64 -g -Og
REM COMMAND_LINE
REM seed -1182849706 -1184913601 1418626533 -1090978457 1537795482 -752797487 1505740587 1572606744 -1031960868 1654522 -1769622433 584992035
REM
REM S 3|1.8|5|6|7|30:31:32(qc=5)
REM O 2|1.5|12|13|15|20:21(qc=5)
REM Li 1|1.3|8|9|10|10U:20(qc=5)
REM Fe 3|2.2|2.0|1.0|8|9|10|40:41:32(qc=5)
REM F 2|1.6|10|12|13|20:21(qc=5)
REM 
CELL 1.54180    5.60482    5.89090    8.09693  111.33216  107.91088   90.00000
LATT -1
SFAC Li O  F  S  Fe 
Li     1 -0.3181740000000  0.1561090000000  0.7084480000000 1.0  -0.02
Li     1  0.3181740000000 -0.5523390000000 -0.7084480000000 1.0  -0.02
O      2 -0.4384060000000 -0.1239910000000 -0.2303260000000 1.0   0.05
O      2 -0.2876640000000 -0.4929340000000 -0.1762400000000 1.0   0.01
O      2 -0.0037980000000 -0.2023080000000 -0.2102880000000 1.0   0.06
O      2 -0.3563550000000 -0.4664820000000 -0.4852150000000 1.0   0.04
O      2  0.4384060000000  0.1063350000000  0.2303260000000 1.0   0.05
O      2  0.2876640000000 -0.3166940000000  0.1762400000000 1.0   0.01
O      2  0.0037980000000  0.0079800000000  0.2102880000000 1.0   0.06
O      2  0.3563550000000  0.0187330000000  0.4852150000000 1.0   0.04
F      3  0.0865930000000  0.5137180000000  0.4228610000000 1.0   0.11
F      3 -0.0865930000000  0.0908570000000 -0.4228610000000 1.0   0.11
S      4 -0.2693630000000 -0.3266000000000 -0.2719560000000 1.0   0.01
S      4  0.2693630000000 -0.0546440000000  0.2719560000000 1.0   0.01
Fe     5  0.1786000000000 -0.1352720000000 -0.3751890000000 1.0   3.75
Fe     5 -0.1786000000000  0.2399170000000  0.3751890000000 1.0   3.75
END
