TITL 2LiFeSO4F-200804-044816-055a54 -0.0554 209.900666 -7.56451059E+003 8.00000 8.25063 16 (I41) n - 1
REM
REM Run started: Tue, 04 Aug 2020 06:04:02 +0100 in /lustre/scratch/uccabz1/launch_tmp/launcher_2020-08-04-03-48-05-580282
REM CASTEP 20.1 from code version af48c487+ pr-geom-scf-spinfix Tue Jun 2 15:39:59 2020 +0100
REM Functional Perdew Burke Ernzerhof Relativity Koelling-Harmon Dispersion off
REM Cut-off 340.0000 eV Grid scale 1.7500 Gmax 16.5316 1/A FBSC none
REM MP grid 3 3 4 Offset 0.000 0.000 0.000 No. kpts 12 Spacing 0.07
REM Total runtime: 4518.64 s
REM Overall efficiency: 69.4444 %
REM
REM 2LiFeSO4F.cell (6abdf011d38848201efe8211ff585b1c)
REM
REM compiler GCC version 4.9.2
REM options -cpp -iprefix /lustre/shared/ucl/apps/gcc/4.9.2/bin/../lib/gcc/x86_64-unknown-linux-gnu/4.9.2/ -mtune=corei7 -march=x86-64 -g -Og
REM COMMAND_LINE
REM seed -1999774788 -256761003 1330183762 -1256287507 -228230101 857439258 -1359886384 1018571687 1100190298 -1875725514 -437000902 -808620771
REM
REM S 3|1.8|5|6|7|30:31:32(qc=5)
REM O 2|1.5|12|13|15|20:21(qc=5)
REM Li 1|1.3|8|9|10|10U:20(qc=5)
REM Fe 3|2.2|2.0|1.0|8|9|10|40:41:32(qc=5)
REM F 2|1.6|10|12|13|20:21(qc=5)
REM 
CELL 1.54180    6.71749    6.71749    6.64827  120.34507  120.34507   90.00000
LATT -1
SFAC Li O  F  S  Fe 
Li     1  0.0851610000000  0.0851610000000  0.1703220000000 1.0  -0.03
Li     1  0.3351610000000 -0.1648390000000 -0.3296780000000 1.0  -0.03
O      2 -0.2643390000000  0.0667230000000 -0.5143140000000 1.0   0.08
O      2  0.2876660000000  0.1144890000000 -0.4092780000000 1.0   0.01
O      2 -0.2499750000000  0.4189620000000 -0.5143140000000 1.0   0.08
O      2 -0.6969440000000  0.4762330000000 -0.4092780000000 1.0   0.01
O      2 -0.3310380000000 -0.5143390000000 -0.0143140000000 1.0   0.08
O      2 -0.2737670000000  0.0376660000000  0.0907220000000 1.0   0.01
O      2  0.3167230000000  0.5000250000000 -0.0143140000000 1.0   0.08
O      2  0.3644890000000  0.0530560000000  0.0907220000000 1.0   0.01
F      3 -0.1091670000000 -0.1091670000000 -0.2183330000000 1.0   0.13
F      3  0.1408330000000 -0.3591670000000  0.2816670000000 1.0   0.13
S      4 -0.3637700000000  0.1362300000000  0.2724600000000 1.0   0.00
S      4  0.3862300000000  0.3862300000000 -0.2275400000000 1.0   0.00
Fe     5 -0.3085380000000 -0.3085380000000  0.3829230000000 1.0   3.72
Fe     5 -0.0585380000000  0.4414620000000 -0.1170770000000 1.0   3.72
END
