TITL 2LiFeSO4F-200804-042554-010a2b -0.0291 191.107909 -7.55806373E+003 7.49664 7.63688 16 (Pmc21) n - 1
REM
REM Run started: Tue, 04 Aug 2020 04:55:07 +0100 in /lustre/scratch/uccabz1/launch_tmp/launcher_2020-08-04-03-25-52-553090
REM CASTEP 20.1 from code version af48c487+ pr-geom-scf-spinfix Tue Jun 2 15:39:59 2020 +0100
REM Functional Perdew Burke Ernzerhof Relativity Koelling-Harmon Dispersion off
REM Cut-off 340.0000 eV Grid scale 1.7500 Gmax 16.5316 1/A FBSC none
REM MP grid 3 4 2 Offset 0.000 0.000 0.000 No. kpts 4 Spacing 0.07
REM Total runtime: 2144.9 s
REM Overall efficiency: 74.4286 %
REM
REM 2LiFeSO4F.cell (6abdf011d38848201efe8211ff585b1c)
REM
REM compiler GCC version 4.9.2
REM options -cpp -iprefix /lustre/shared/ucl/apps/gcc/4.9.2/bin/../lib/gcc/x86_64-unknown-linux-gnu/4.9.2/ -mtune=corei7 -march=x86-64 -g -Og
REM COMMAND_LINE
REM seed -1240030046 -1244512188 1358176125 286662620 -1218886359 1819819795 -133347093 1161131087 57303690 -1223048846 -1762207253 1536717877
REM
REM S 3|1.8|5|6|7|30:31:32(qc=5)
REM O 2|1.5|12|13|15|20:21(qc=5)
REM Li 1|1.3|8|9|10|10U:20(qc=5)
REM Fe 3|2.2|2.0|1.0|8|9|10|40:41:32(qc=5)
REM F 2|1.6|10|12|13|20:21(qc=5)
REM 
CELL 1.54180    5.27728    4.35150    8.32203   90.00000   90.00000   90.00000
LATT -1
SFAC Li O  F  S  Fe 
Li     1  0.5000000000000  0.0618550000000  0.1490420000000 1.0  -0.02
Li     1 -0.5000000000000 -0.0618550000000 -0.3509580000000 1.0  -0.02
O      2  0.2121140000000  0.2104920000000 -0.2795080000000 1.0   0.12
O      2  0.2112790000000  0.5843940000000 -0.4741080000000 1.0   0.12
O      2 -0.2121140000000 -0.2104920000000  0.2204920000000 1.0   0.12
O      2 -0.2112790000000 -0.5843940000000  0.0258920000000 1.0   0.12
O      2  0.2121140000000 -0.2104920000000  0.2204920000000 1.0   0.12
O      2  0.2112790000000 -0.5843940000000  0.0258920000000 1.0   0.12
O      2 -0.2121140000000  0.2104920000000 -0.2795080000000 1.0   0.12
O      2 -0.2112790000000  0.5843940000000 -0.4741080000000 1.0   0.12
F      3 -0.5000000000000 -0.0691380000000 -0.0672030000000 1.0   0.12
F      3 -0.5000000000000  0.0691380000000  0.4327970000000 1.0   0.12
S      4  0.0000000000000  0.6829540000000  0.0823850000000 1.0   0.08
S      4  0.0000000000000 -0.6829540000000 -0.4176150000000 1.0   0.08
Fe     5 -0.0000000000000  0.1764640000000 -0.1004880000000 1.0   3.08
Fe     5  0.0000000000000 -0.1764640000000  0.3995120000000 1.0   3.08
END
