TITL 2LiFeSO4F-200818-203630-475564 -0.0181 241.608675 -7.56533917E+003 8.00000 8.11016 16 (P-1) n - 1
REM
REM Run started: Wed, 19 Aug 2020 00:13:20 +0100 in /lustre/scratch/uccabz1/launch_tmp/launcher_2020-08-18-19-36-26-491752
REM CASTEP 20.1 from code version af48c487+ pr-geom-scf-spinfix Tue Jun 2 15:39:59 2020 +0100
REM Functional Perdew Burke Ernzerhof Relativity Koelling-Harmon Dispersion off
REM Cut-off 340.0000 eV Grid scale 1.7500 Gmax 16.5316 1/A FBSC none
REM MP grid 2 3 3 Offset 0.000 0.000 0.000 No. kpts 9 Spacing 0.07
REM Total runtime: 13981.8 s
REM Overall efficiency: 96.25 %
REM
REM 2LiFeSO4F.cell (6abdf011d38848201efe8211ff585b1c)
REM
REM compiler GCC version 4.9.2
REM options -cpp -iprefix /lustre/shared/ucl/apps/gcc/4.9.2/bin/../lib/gcc/x86_64-unknown-linux-gnu/4.9.2/ -mtune=corei7 -march=x86-64 -g -Og
REM COMMAND_LINE
REM seed 1227581725 -651558771 770636149 1004546111 -1762573911 -222747147 -1146386993 1051846392 -1947074406 752697008 1602604443 736405985
REM
REM S 3|1.8|5|6|7|30:31:32(qc=5)
REM O 2|1.5|12|13|15|20:21(qc=5)
REM Li 1|1.3|8|9|10|10U:20(qc=5)
REM Fe 3|2.2|2.0|1.0|8|9|10|40:41:32(qc=5)
REM F 2|1.6|10|12|13|20:21(qc=5)
REM 
CELL 1.54180    7.84265    6.01866    5.18599   89.64014   98.94143   92.37103
LATT -1
SFAC Li O  F  S  Fe 
Li     1 -0.2980190000000 -0.2451840000000  0.2116320000000 1.0  -0.00
Li     1  0.2980190000000  0.2451840000000 -0.2116320000000 1.0  -0.00
O      2  0.2035110000000 -0.0635450000000 -0.1337150000000 1.0   0.07
O      2  0.4635550000000 -0.2544600000000  0.0830460000000 1.0   0.02
O      2  0.1984480000000 -0.4585300000000 -0.1354980000000 1.0   0.07
O      2  0.2043620000000 -0.2633590000000  0.2856920000000 1.0   0.08
O      2 -0.2035110000000  0.0635450000000  0.1337150000000 1.0   0.07
O      2 -0.4635550000000  0.2544600000000 -0.0830460000000 1.0   0.02
O      2 -0.1984480000000  0.4585300000000  0.1354980000000 1.0   0.07
O      2 -0.2043620000000  0.2633590000000 -0.2856920000000 1.0   0.08
F      3 -0.1700840000000 -0.2358330000000 -0.4484910000000 1.0   0.14
F      3  0.1700840000000  0.2358330000000  0.4484910000000 1.0   0.14
S      4  0.2746310000000 -0.2590750000000  0.0325450000000 1.0   0.01
S      4 -0.2746310000000  0.2590750000000 -0.0325450000000 1.0   0.01
Fe     5 -0.0640620000000  0.2652140000000 -0.5561200000000 1.0   3.62
Fe     5  0.0640620000000 -0.2652140000000  0.5561200000000 1.0   3.62
END
