TITL 2LiFeSO4F-200819-012124-b17b32 0.0131 221.803339 -7.56593986E+003 8.00000 8.11530 16 (P-1) n - 1
REM
REM Run started: Wed, 19 Aug 2020 03:18:40 +0100 in /lustre/scratch/uccabz1/launch_tmp/launcher_2020-08-19-00-21-22-291946
REM CASTEP 20.1 from code version af48c487+ pr-geom-scf-spinfix Tue Jun 2 15:39:59 2020 +0100
REM Functional Perdew Burke Ernzerhof Relativity Koelling-Harmon Dispersion off
REM Cut-off 340.0000 eV Grid scale 1.7500 Gmax 16.5316 1/A FBSC none
REM MP grid 3 2 3 Offset 0.000 0.000 0.000 No. kpts 9 Spacing 0.07
REM Total runtime: 7079.47 s
REM Overall efficiency: 92.3333 %
REM
REM 2LiFeSO4F.cell (6abdf011d38848201efe8211ff585b1c)
REM
REM compiler GCC version 4.9.2
REM options -cpp -iprefix /lustre/shared/ucl/apps/gcc/4.9.2/bin/../lib/gcc/x86_64-unknown-linux-gnu/4.9.2/ -mtune=corei7 -march=x86-64 -g -Og
REM COMMAND_LINE
REM seed -899902179 -1780743253 -690594003 346009993 145563683 586805687 1840153820 -918064679 -149806188 -1979119474 -540672243 -1083117806
REM
REM S 3|1.8|5|6|7|30:31:32(qc=5)
REM O 2|1.5|12|13|15|20:21(qc=5)
REM Li 1|1.3|8|9|10|10U:20(qc=5)
REM Fe 3|2.2|2.0|1.0|8|9|10|40:41:32(qc=5)
REM F 2|1.6|10|12|13|20:21(qc=5)
REM 
CELL 1.54180    4.93699    7.89479    5.90453  104.63291   92.47785   85.09999
LATT -1
SFAC Li O  F  S  Fe 
Li     1 -0.4126630000000  0.0246410000000 -0.2358470000000 1.0  -0.01
Li     1  0.4126630000000 -0.0246410000000  0.2358470000000 1.0  -0.01
O      2  0.1089530000000 -0.3171710000000  0.5110180000000 1.0   0.06
O      2  0.1072220000000 -0.2073770000000  0.1606350000000 1.0   0.06
O      2 -0.2749940000000 -0.1163360000000  0.4284370000000 1.0   0.01
O      2 -0.2176850000000 -0.4190060000000  0.1883690000000 1.0   0.06
O      2 -0.1089530000000  0.3171710000000 -0.5110180000000 1.0   0.06
O      2 -0.1072220000000  0.2073770000000 -0.1606350000000 1.0   0.06
O      2  0.2749940000000  0.1163360000000 -0.4284370000000 1.0   0.01
O      2  0.2176850000000  0.4190060000000 -0.1883690000000 1.0   0.06
F      3 -0.5039790000000  0.1635940000000  0.1128720000000 1.0   0.10
F      3  0.5039790000000 -0.1635940000000 -0.1128720000000 1.0   0.10
S      4 -0.0727290000000 -0.2634210000000  0.3269870000000 1.0   0.02
S      4  0.0727290000000  0.2634210000000 -0.3269870000000 1.0   0.02
Fe     5 -0.2324020000000  0.3291760000000  0.1708560000000 1.0   3.69
Fe     5  0.2324020000000 -0.3291760000000 -0.1708560000000 1.0   3.69
END
