TITL 2LiFeSO4F-200818-183700-cfd905 0.0736 201.147163 -7.56429148E+003 8.00000 8.08838 16 (P2) n - 1
REM
REM Run started: Tue, 18 Aug 2020 22:32:10 +0100 in /scratch/scratch/uccabz1/launch_tmp/launcher_2020-08-18-17-36-56-564959
REM CASTEP 19.11| from code version Version unavailable
REM Functional Perdew Burke Ernzerhof Relativity Koelling-Harmon Dispersion off
REM Cut-off 340.0000 eV Grid scale 1.7500 Gmax 16.5316 1/A FBSC none
REM MP grid 3 3 2 Offset 0.000 0.000 0.000 No. kpts 6 Spacing 0.07
REM Total runtime: 14237.5 s
REM Overall efficiency: 77.6364 %
REM
REM 2LiFeSO4F.cell (6abdf011d38848201efe8211ff585b1c)
REM
REM compiler GCC version 4.9.2
REM options -cpp -iprefix /scratch/UCL/applications/gcc/4.9.2/bin/../lib/gcc/x86_64-unknown-linux-gnu/4.9.2/ -mtune=corei7 -march=x86-64 -g -O2
REM COMMAND_LINE
REM seed -102960716 -1315322821 670211591 242143230 1126474906 -1152830664 1711941114 -2045435424 -1104026206 -1342696431 -1685581498 1989551109
REM
REM S 3|1.8|5|6|7|30:31:32(qc=5)
REM O 2|1.5|12|13|15|20:21(qc=5)
REM Li 1|1.3|8|9|10|10U:20(qc=5)
REM Fe 3|2.2|2.0|1.0|8|9|10|40:41:32(qc=5)
REM F 2|1.6|10|12|13|20:21(qc=5)
REM 
CELL 1.54180    4.76327    4.75923    8.88868   93.39951   90.00000   90.00000
LATT -1
SFAC Li O  F  S  Fe 
Li     1 -0.4796020000000  0.0000000000000 -0.5000000000000 1.0  -0.03
Li     1  0.1293100000000  0.5000000000000  0.0000000000000 1.0  -0.04
O      2 -0.1877530000000  0.0382920000000 -0.2180200000000 1.0   0.04
O      2  0.2755860000000  0.1591700000000 -0.1117550000000 1.0   0.04
O      2  0.1999490000000  0.1738810000000 -0.3840440000000 1.0   0.04
O      2  0.2146650000000 -0.2775300000000 -0.2754150000000 1.0   0.04
O      2 -0.1877530000000 -0.0382920000000  0.2180200000000 1.0   0.04
O      2  0.2755860000000 -0.1591700000000  0.1117550000000 1.0   0.04
O      2  0.1999490000000 -0.1738810000000  0.3840440000000 1.0   0.04
O      2  0.2146650000000  0.2775300000000  0.2754150000000 1.0   0.04
F      3 -0.2526690000000  0.5000000000000  0.0000000000000 1.0   0.05
F      3 -0.3199200000000 -0.5000000000000 -0.5000000000000 1.0   0.15
S      4  0.1233490000000  0.0214510000000 -0.2453270000000 1.0   0.01
S      4  0.1233490000000 -0.0214510000000  0.2453270000000 1.0   0.01
Fe     5  0.0746550000000  0.5000000000000 -0.5000000000000 1.0   3.76
Fe     5 -0.3650620000000  0.0000000000000  0.0000000000000 1.0   3.76
END
