TITL 2LiFeSO4F-200804-041440-caab33 0.0287 241.431654 -7.56549673E+003 8.00000 8.08655 16 (P21) n - 1
REM
REM Run started: Tue, 04 Aug 2020 05:04:01 +0100 in /lustre/scratch/uccabz1/launch_tmp/launcher_2020-08-04-03-14-39-066450
REM CASTEP 20.1 from code version af48c487+ pr-geom-scf-spinfix Tue Jun 2 15:39:59 2020 +0100
REM Functional Perdew Burke Ernzerhof Relativity Koelling-Harmon Dispersion off
REM Cut-off 340.0000 eV Grid scale 1.7500 Gmax 16.5316 1/A FBSC none
REM MP grid 3 3 2 Offset 0.000 0.000 0.000 No. kpts 5 Spacing 0.07
REM Total runtime: 3107.54 s
REM Overall efficiency: 74.2222 %
REM
REM 2LiFeSO4F.cell (6abdf011d38848201efe8211ff585b1c)
REM
REM compiler GCC version 4.9.2
REM options -cpp -iprefix /lustre/shared/ucl/apps/gcc/4.9.2/bin/../lib/gcc/x86_64-unknown-linux-gnu/4.9.2/ -mtune=corei7 -march=x86-64 -g -Og
REM COMMAND_LINE
REM seed 1079998010 -1157724307 -1385254994 -1218060150 635274556 484522102 455737906 -676749533 -2004630936 1784236145 354245598 -127362069
REM
REM S 3|1.8|5|6|7|30:31:32(qc=5)
REM O 2|1.5|12|13|15|20:21(qc=5)
REM Li 1|1.3|8|9|10|10U:20(qc=5)
REM Fe 3|2.2|2.0|1.0|8|9|10|40:41:32(qc=5)
REM F 2|1.6|10|12|13|20:21(qc=5)
REM 
CELL 1.54180    4.93457    5.34379    9.16986   90.00000   90.00000   93.17413
LATT -1
SFAC Li O  F  S  Fe 
Li     1 -0.2164110000000 -0.4180060000000 -0.4516050000000 1.0  -0.02
Li     1  0.2164110000000  0.4180060000000  0.0483950000000 1.0  -0.02
O      2 -0.1637080000000 -0.1190410000000 -0.3270150000000 1.0   0.05
O      2  0.2265510000000 -0.0415980000000 -0.4844760000000 1.0   0.06
O      2  0.2628350000000  0.0612600000000 -0.2218650000000 1.0   0.06
O      2 -0.0040050000000  0.3202300000000 -0.3793100000000 1.0   0.01
O      2  0.1637080000000  0.1190410000000  0.1729850000000 1.0   0.05
O      2 -0.2265510000000  0.0415980000000  0.0155240000000 1.0   0.06
O      2 -0.2628350000000 -0.0612600000000  0.2781350000000 1.0   0.06
O      2  0.0040050000000 -0.3202300000000  0.1206900000000 1.0   0.01
F      3  0.5544910000000 -0.5581400000000  0.4180950000000 1.0   0.11
F      3 -0.5544910000000  0.5581400000000 -0.0819050000000 1.0   0.11
S      4  0.0830300000000  0.0648810000000 -0.3547390000000 1.0   0.01
S      4 -0.0830300000000 -0.0648810000000  0.1452610000000 1.0   0.01
Fe     5 -0.4233890000000 -0.1267750000000 -0.1549210000000 1.0   3.71
Fe     5  0.4233890000000  0.1267750000000  0.3450790000000 1.0   3.71
END
