TITL 2LiFeSO4F-200818-183722-1dffa5 -0.0765 256.646094 -7.56496175E+003 8.00000 8.04300 16 (Pm) n - 1
REM
REM Run started: Tue, 18 Aug 2020 23:03:06 +0100 in /lustre/scratch/uccabz1/launch_tmp/launcher_2020-08-18-17-37-20-240232
REM CASTEP 20.1 from code version af48c487+ pr-geom-scf-spinfix Tue Jun 2 15:39:59 2020 +0100
REM Functional Perdew Burke Ernzerhof Relativity Koelling-Harmon Dispersion off
REM Cut-off 340.0000 eV Grid scale 1.7500 Gmax 16.5316 1/A FBSC none
REM MP grid 4 4 2 Offset 0.000 0.000 0.000 No. kpts 8 Spacing 0.07
REM Total runtime: 17161 s
REM Overall efficiency: 92.7692 %
REM
REM 2LiFeSO4F.cell (6abdf011d38848201efe8211ff585b1c)
REM
REM compiler GCC version 4.9.2
REM options -cpp -iprefix /lustre/shared/ucl/apps/gcc/4.9.2/bin/../lib/gcc/x86_64-unknown-linux-gnu/4.9.2/ -mtune=corei7 -march=x86-64 -g -Og
REM COMMAND_LINE
REM seed -1219312965 -285522261 -394341960 -1706651511 2022181968 981940136 -1403784753 -913932782 -579787240 2016297966 -1860506001 291766533
REM
REM S 3|1.8|5|6|7|30:31:32(qc=5)
REM O 2|1.5|12|13|15|20:21(qc=5)
REM Li 1|1.3|8|9|10|10U:20(qc=5)
REM Fe 3|2.2|2.0|1.0|8|9|10|40:41:32(qc=5)
REM F 2|1.6|10|12|13|20:21(qc=5)
REM 
CELL 1.54180    5.08612    4.82888   12.10512   90.00000   90.00000  120.31756
LATT -1
SFAC Li O  F  S  Fe 
Li     1  0.1245640000000  0.2968600000000 -0.1261900000000 1.0  -0.01
Li     1  0.1245640000000  0.2968600000000  0.1261900000000 1.0  -0.01
O      2  0.0309710000000 -0.3921370000000  0.2795380000000 1.0   0.07
O      2 -0.5148440000000 -0.6741820000000  0.2392210000000 1.0   0.06
O      2 -0.1866520000000 -0.1470020000000  0.1538790000000 1.0   0.01
O      2 -0.2822830000000 -0.1815810000000  0.3544360000000 1.0   0.07
O      2  0.0309710000000 -0.3921370000000 -0.2795380000000 1.0   0.07
O      2 -0.5148440000000 -0.6741820000000 -0.2392210000000 1.0   0.06
O      2 -0.1866520000000 -0.1470020000000 -0.1538790000000 1.0   0.01
O      2 -0.2822830000000 -0.1815810000000 -0.3544360000000 1.0   0.07
F      3  0.3815050000000  0.0451770000000  0.5000000000000 1.0   0.15
F      3  0.1621850000000  0.4636290000000  0.0000000000000 1.0   0.00
S      4 -0.2346780000000 -0.3396430000000  0.2536670000000 1.0   0.01
S      4 -0.2346780000000 -0.3396430000000 -0.2536670000000 1.0   0.01
Fe     5  0.4194080000000 -0.0284640000000  0.3450410000000 1.0   3.72
Fe     5  0.4194080000000 -0.0284640000000 -0.3450410000000 1.0   3.72
END
