TITL 2LiFeSO4F-200804-033113-d1ba56 0.0566 272.951348 -7.56332949E+003 8.00000 8.22190 16 (Pma2) n - 1
REM
REM Run started: Tue, 04 Aug 2020 04:15:22 +0100 in /lustre/scratch/uccabz1/launch_tmp/launcher_2020-08-04-02-31-11-514263
REM CASTEP 20.1 from code version af48c487+ pr-geom-scf-spinfix Tue Jun 2 15:39:59 2020 +0100
REM Functional Perdew Burke Ernzerhof Relativity Koelling-Harmon Dispersion off
REM Cut-off 340.0000 eV Grid scale 1.7500 Gmax 16.5316 1/A FBSC none
REM MP grid 3 3 2 Offset 0.000 0.000 0.000 No. kpts 4 Spacing 0.07
REM Total runtime: 2989.7 s
REM Overall efficiency: 74.625 %
REM
REM 2LiFeSO4F.cell (6abdf011d38848201efe8211ff585b1c)
REM
REM compiler GCC version 4.9.2
REM options -cpp -iprefix /lustre/shared/ucl/apps/gcc/4.9.2/bin/../lib/gcc/x86_64-unknown-linux-gnu/4.9.2/ -mtune=corei7 -march=x86-64 -g -Og
REM COMMAND_LINE
REM seed 665374446 637954954 1408228861 -778834960 -1098054922 1554090160 -44092881 -328587743 -552652183 180963214 -1347541422 1792458202
REM
REM S 3|1.8|5|6|7|30:31:32(qc=5)
REM O 2|1.5|12|13|15|20:21(qc=5)
REM Li 1|1.3|8|9|10|10U:20(qc=5)
REM Fe 3|2.2|2.0|1.0|8|9|10|40:41:32(qc=5)
REM F 2|1.6|10|12|13|20:21(qc=5)
REM 
CELL 1.54180    4.90499    5.09206   10.92833   90.00000   90.00000   90.00000
LATT -1
SFAC Li O  F  S  Fe 
Li     1  0.5000000000000 -0.0544110000000  0.0000000000000 1.0  -0.02
Li     1 -0.5000000000000 -0.0544110000000  0.5000000000000 1.0  -0.02
O      2  0.3183790000000  0.6292640000000 -0.0763090000000 1.0   0.01
O      2  0.6645640000000  0.2687930000000 -0.0787960000000 1.0   0.06
O      2 -0.3183790000000  0.6292640000000  0.0763090000000 1.0   0.01
O      2 -0.6645640000000  0.2687930000000  0.0787960000000 1.0   0.06
O      2 -0.3183790000000  0.6292640000000  0.4236910000000 1.0   0.01
O      2 -0.6645640000000  0.2687930000000  0.4212040000000 1.0   0.06
O      2  0.3183790000000  0.6292640000000 -0.4236910000000 1.0   0.01
O      2  0.6645640000000  0.2687930000000 -0.4212040000000 1.0   0.06
F      3 -0.1742280000000 -0.1381280000000 -0.2500000000000 1.0   0.23
F      3  0.1742280000000 -0.1381280000000  0.2500000000000 1.0   0.23
S      4  0.5000000000000  0.4662190000000  0.0000000000000 1.0   0.01
S      4  0.5000000000000  0.4662190000000  0.5000000000000 1.0   0.01
Fe     5 -0.2587620000000  0.2090760000000 -0.2500000000000 1.0   3.63
Fe     5  0.2587620000000  0.2090760000000  0.2500000000000 1.0   3.63
END
