TITL 2LiFeSO4F-200804-044823-983466 0.0047 217.665945 -7.56590443E+003 8.00000 8.15046 16 (P21) n - 1
REM
REM Run started: Tue, 04 Aug 2020 05:26:18 +0100 in /lustre/scratch/uccabz1/launch_tmp/launcher_2020-08-04-03-48-21-324211
REM CASTEP 20.1 from code version af48c487+ pr-geom-scf-spinfix Tue Jun 2 15:39:59 2020 +0100
REM Functional Perdew Burke Ernzerhof Relativity Koelling-Harmon Dispersion off
REM Cut-off 340.0000 eV Grid scale 1.7500 Gmax 16.5316 1/A FBSC none
REM MP grid 3 3 2 Offset 0.000 0.000 0.000 No. kpts 5 Spacing 0.07
REM Total runtime: 2416.26 s
REM Overall efficiency: 74.2857 %
REM
REM 2LiFeSO4F.cell (6abdf011d38848201efe8211ff585b1c)
REM
REM compiler GCC version 4.9.2
REM options -cpp -iprefix /lustre/shared/ucl/apps/gcc/4.9.2/bin/../lib/gcc/x86_64-unknown-linux-gnu/4.9.2/ -mtune=corei7 -march=x86-64 -g -Og
REM COMMAND_LINE
REM seed 230986665 -1577522420 938008795 7154787 -617974282 -627590515 1427135126 -748477467 1029601982 -1537808809 -2043091794 146023536
REM
REM S 3|1.8|5|6|7|30:31:32(qc=5)
REM O 2|1.5|12|13|15|20:21(qc=5)
REM Li 1|1.3|8|9|10|10U:20(qc=5)
REM Fe 3|2.2|2.0|1.0|8|9|10|40:41:32(qc=5)
REM F 2|1.6|10|12|13|20:21(qc=5)
REM 
CELL 1.54180    5.14481    5.15614    8.20627   90.00000   90.00000   90.86141
LATT -1
SFAC Li O  F  S  Fe 
Li     1 -0.6070390000000 -0.0735920000000 -0.2918310000000 1.0  -0.02
Li     1  0.6070390000000  0.0735920000000  0.2081690000000 1.0  -0.02
O      2  0.5483340000000 -0.2288610000000  0.5171140000000 1.0   0.01
O      2  0.6035390000000 -0.6464610000000  0.3817430000000 1.0   0.05
O      2  0.4076750000000 -0.2784340000000  0.2334860000000 1.0   0.05
O      2  0.1604800000000 -0.5001650000000  0.4466200000000 1.0   0.06
O      2 -0.5483340000000  0.2288610000000  0.0171140000000 1.0   0.01
O      2 -0.6035390000000  0.6464610000000 -0.1182570000000 1.0   0.05
O      2 -0.4076750000000  0.2784340000000 -0.2665140000000 1.0   0.05
O      2 -0.1604800000000  0.5001650000000 -0.0533800000000 1.0   0.06
F      3 -0.0705130000000 -0.0328680000000  0.1634820000000 1.0   0.13
F      3  0.0705130000000  0.0328680000000 -0.3365180000000 1.0   0.13
S      4  0.4281510000000 -0.4108310000000  0.3983490000000 1.0   0.02
S      4 -0.4281510000000  0.4108310000000 -0.1016510000000 1.0   0.02
Fe     5  0.1124970000000 -0.2970790000000  0.0601580000000 1.0   3.70
Fe     5 -0.1124970000000  0.2970790000000 -0.4398420000000 1.0   3.70
END
