TITL 2LiFeSO4F-200819-013920-070ab4 -0.0199 224.318667 -7.56578544E+003 8.00000 8.09709 16 (P21) n - 1
REM
REM Run started: Wed, 19 Aug 2020 04:45:46 +0100 in /lustre/scratch/uccabz1/launch_tmp/launcher_2020-08-19-00-39-16-487752
REM CASTEP 20.1 from code version af48c487+ pr-geom-scf-spinfix Tue Jun 2 15:39:59 2020 +0100
REM Functional Perdew Burke Ernzerhof Relativity Koelling-Harmon Dispersion off
REM Cut-off 340.0000 eV Grid scale 1.7500 Gmax 16.5316 1/A FBSC none
REM MP grid 4 3 2 Offset 0.000 0.000 0.000 No. kpts 8 Spacing 0.07
REM Total runtime: 12470.9 s
REM Overall efficiency: 92.0833 %
REM
REM 2LiFeSO4F.cell (6abdf011d38848201efe8211ff585b1c)
REM
REM compiler GCC version 4.9.2
REM options -cpp -iprefix /lustre/shared/ucl/apps/gcc/4.9.2/bin/../lib/gcc/x86_64-unknown-linux-gnu/4.9.2/ -mtune=corei7 -march=x86-64 -g -Og
REM COMMAND_LINE
REM seed 1727715885 1244452640 -2047184037 -74985905 1683632372 2074884417 -2096577498 -1077806517 -1895361311 -1050274017 -528229674 994506117
REM
REM S 3|1.8|5|6|7|30:31:32(qc=5)
REM O 2|1.5|12|13|15|20:21(qc=5)
REM Li 1|1.3|8|9|10|10U:20(qc=5)
REM Fe 3|2.2|2.0|1.0|8|9|10|40:41:32(qc=5)
REM F 2|1.6|10|12|13|20:21(qc=5)
REM 
CELL 1.54180    5.08647    5.86043   10.56041   90.00000  134.55413   90.00000
LATT -1
SFAC Li O  F  S  Fe 
Li     1  0.2557030000000 -0.2040950000000 -0.3372200000000 1.0  -0.01
Li     1 -0.2557030000000  0.2959050000000  0.3372200000000 1.0  -0.01
O      2  0.0841360000000  0.0327710000000 -0.2681400000000 1.0   0.05
O      2 -0.0135810000000  0.3940330000000 -0.4220750000000 1.0   0.02
O      2  0.5644100000000  0.1862520000000 -0.2467560000000 1.0   0.04
O      2  0.4110020000000  0.3813040000000 -0.0962700000000 1.0   0.05
O      2 -0.0841360000000 -0.4672290000000  0.2681400000000 1.0   0.05
O      2  0.0135810000000 -0.1059670000000  0.4220750000000 1.0   0.02
O      2 -0.5644100000000 -0.3137480000000  0.2467560000000 1.0   0.04
O      2 -0.4110020000000 -0.1186960000000  0.0962700000000 1.0   0.05
F      3  0.2358790000000  0.2351860000000  0.1286880000000 1.0   0.10
F      3 -0.2358790000000 -0.2648140000000 -0.1286880000000 1.0   0.10
S      4  0.2589790000000  0.2514120000000 -0.2604010000000 1.0   0.01
S      4 -0.2589790000000 -0.2485880000000  0.2604010000000 1.0   0.01
Fe     5  0.0725580000000  0.0246930000000 -0.0706640000000 1.0   3.74
Fe     5 -0.0725580000000  0.5246930000000  0.0706640000000 1.0   3.74
END
