TITL 2LiFeSO4F-200804-023114-7ddbd5 0.0304 198.108033 -7.56583459E+003 8.00000 8.07977 16 (Pc) n - 1
REM
REM Run started: Tue, 04 Aug 2020 03:14:38 +0100 in /lustre/scratch/uccabz1/launch_tmp/launcher_2020-08-04-01-31-08-293511
REM CASTEP 20.1 from code version af48c487+ pr-geom-scf-spinfix Tue Jun 2 15:39:59 2020 +0100
REM Functional Perdew Burke Ernzerhof Relativity Koelling-Harmon Dispersion off
REM Cut-off 340.0000 eV Grid scale 1.7500 Gmax 16.5316 1/A FBSC none
REM MP grid 4 3 2 Offset 0.000 0.000 0.000 No. kpts 6 Spacing 0.07
REM Total runtime: 2738.92 s
REM Overall efficiency: 81.1429 %
REM
REM 2LiFeSO4F.cell (6abdf011d38848201efe8211ff585b1c)
REM
REM compiler GCC version 4.9.2
REM options -cpp -iprefix /lustre/shared/ucl/apps/gcc/4.9.2/bin/../lib/gcc/x86_64-unknown-linux-gnu/4.9.2/ -mtune=corei7 -march=x86-64 -g -Og
REM COMMAND_LINE
REM seed 1320088639 -1637210642 -56244901 -777309560 1313668454 751522938 -278883398 1406238910 -1989339376 -935040260 628864770 1072068514
REM
REM S 3|1.8|5|6|7|30:31:32(qc=5)
REM O 2|1.5|12|13|15|20:21(qc=5)
REM Li 1|1.3|8|9|10|10U:20(qc=5)
REM Fe 3|2.2|2.0|1.0|8|9|10|40:41:32(qc=5)
REM F 2|1.6|10|12|13|20:21(qc=5)
REM 
CELL 1.54180    4.90445    5.34881    8.11876   90.00000   90.00000  111.53773
LATT -1
SFAC Li O  F  S  Fe 
Li     1  0.3282650000000  0.0232170000000  0.4081640000000 1.0  -0.02
Li     1  0.3282650000000  0.5232170000000 -0.4081640000000 1.0  -0.02
O      2 -0.3004610000000  0.5473020000000 -0.3033000000000 1.0   0.03
O      2 -0.4739480000000  0.1653610000000 -0.1072000000000 1.0   0.05
O      2 -0.0121620000000  0.5533320000000 -0.0616450000000 1.0   0.08
O      2 -0.0396940000000  0.2302630000000 -0.2835860000000 1.0   0.04
O      2 -0.3004610000000  0.0473020000000  0.3033000000000 1.0   0.03
O      2 -0.4739480000000 -0.3346390000000  0.1072000000000 1.0   0.05
O      2 -0.0121620000000  0.0533320000000  0.0616450000000 1.0   0.08
O      2 -0.0396940000000 -0.2697370000000  0.2835860000000 1.0   0.04
F      3  0.2897300000000 -0.1468450000000 -0.3895340000000 1.0   0.06
F      3  0.2897300000000  0.3531550000000  0.3895340000000 1.0   0.06
S      4 -0.2162020000000  0.3663010000000 -0.1907630000000 1.0   0.01
S      4 -0.2162020000000 -0.1336990000000  0.1907630000000 1.0   0.01
Fe     5  0.1071840000000 -0.0635790000000 -0.1843110000000 1.0   3.74
Fe     5  0.1071840000000  0.4364210000000  0.1843110000000 1.0   3.74
END
