TITL 2LiFeSO4F-200804-052201-7e36fc 0.0066 215.487633 -7.56543128E+003 8.00000 8.10591 16 (P21) n - 1
REM
REM Run started: Tue, 04 Aug 2020 07:11:53 +0100 in /lustre/scratch/uccabz1/launch_tmp/launcher_2020-08-04-04-22-00-328023
REM CASTEP 20.1 from code version af48c487+ pr-geom-scf-spinfix Tue Jun 2 15:39:59 2020 +0100
REM Functional Perdew Burke Ernzerhof Relativity Koelling-Harmon Dispersion off
REM Cut-off 340.0000 eV Grid scale 1.7500 Gmax 16.5316 1/A FBSC none
REM MP grid 3 3 3 Offset 0.000 0.000 0.000 No. kpts 10 Spacing 0.07
REM Total runtime: 6803.54 s
REM Overall efficiency: 90.6 %
REM
REM 2LiFeSO4F.cell (6abdf011d38848201efe8211ff585b1c)
REM
REM compiler GCC version 4.9.2
REM options -cpp -iprefix /lustre/shared/ucl/apps/gcc/4.9.2/bin/../lib/gcc/x86_64-unknown-linux-gnu/4.9.2/ -mtune=corei7 -march=x86-64 -g -Og
REM COMMAND_LINE
REM seed 544091907 -1042144106 -167924833 -1454011099 -1512069132 -1132185446 -757977059 -1689011237 772217060 538863402 473992218 -109689946
REM
REM S 3|1.8|5|6|7|30:31:32(qc=5)
REM O 2|1.5|12|13|15|20:21(qc=5)
REM Li 1|1.3|8|9|10|10U:20(qc=5)
REM Fe 3|2.2|2.0|1.0|8|9|10|40:41:32(qc=5)
REM F 2|1.6|10|12|13|20:21(qc=5)
REM 
CELL 1.54180    5.70953    6.26206    6.94201  119.74996   90.00000   90.00000
LATT -1
SFAC Li O  F  S  Fe 
Li     1 -0.0133950000000  0.1348560000000  0.3647080000000 1.0  -0.04
Li     1  0.4866050000000 -0.1348560000000 -0.3647080000000 1.0  -0.04
O      2  0.5583550000000  0.1595080000000  0.2115920000000 1.0   0.06
O      2  0.1517010000000  0.3174730000000  0.2466180000000 1.0   0.01
O      2  0.3863450000000  0.2186100000000 -0.0841910000000 1.0   0.05
O      2  0.4965870000000  0.5701990000000  0.2766510000000 1.0   0.06
O      2  0.0583550000000 -0.1595080000000 -0.2115920000000 1.0   0.06
O      2 -0.3482990000000 -0.3174730000000 -0.2466180000000 1.0   0.01
O      2 -0.1136550000000 -0.2186100000000  0.0841910000000 1.0   0.05
O      2 -0.0034130000000 -0.5701990000000 -0.2766510000000 1.0   0.06
F      3  0.2508510000000 -0.0037220000000 -0.5383520000000 1.0   0.09
F      3 -0.2491490000000  0.0037220000000  0.5383520000000 1.0   0.09
S      4  0.3909620000000  0.3148780000000  0.1642030000000 1.0   0.02
S      4 -0.1090380000000 -0.3148780000000 -0.1642030000000 1.0   0.02
Fe     5  0.0591090000000  0.1352610000000 -0.2476850000000 1.0   3.74
Fe     5  0.5591090000000 -0.1352610000000  0.2476850000000 1.0   3.74
END
