TITL 2LiFeSO4F-200818-231730-66f331 -0.0254 218.673297 -7.56632821E+003 8.00000 8.10481 16 (P-1) n - 1
REM
REM Run started: Wed, 19 Aug 2020 01:32:34 +0100 in /lustre/scratch/uccabz1/launch_tmp/launcher_2020-08-18-22-17-27-937225
REM CASTEP 20.1 from code version af48c487+ pr-geom-scf-spinfix Tue Jun 2 15:39:59 2020 +0100
REM Functional Perdew Burke Ernzerhof Relativity Koelling-Harmon Dispersion off
REM Cut-off 340.0000 eV Grid scale 1.7500 Gmax 16.5316 1/A FBSC none
REM MP grid 3 3 2 Offset 0.000 0.000 0.000 No. kpts 9 Spacing 0.07
REM Total runtime: 8139.33 s
REM Overall efficiency: 91.2 %
REM
REM 2LiFeSO4F.cell (6abdf011d38848201efe8211ff585b1c)
REM
REM compiler GCC version 4.9.2
REM options -cpp -iprefix /lustre/shared/ucl/apps/gcc/4.9.2/bin/../lib/gcc/x86_64-unknown-linux-gnu/4.9.2/ -mtune=corei7 -march=x86-64 -g -Og
REM COMMAND_LINE
REM seed -468486780 -1847670396 562586938 1360251863 239632556 772936385 -1495614508 -593525592 -893834937 -1267904335 -1921563139 -245211203
REM
REM S 3|1.8|5|6|7|30:31:32(qc=5)
REM O 2|1.5|12|13|15|20:21(qc=5)
REM Li 1|1.3|8|9|10|10U:20(qc=5)
REM Fe 3|2.2|2.0|1.0|8|9|10|40:41:32(qc=5)
REM F 2|1.6|10|12|13|20:21(qc=5)
REM 
CELL 1.54180    5.00310    6.01286    7.39311   99.52011   88.94711   94.46864
LATT -1
SFAC Li O  F  S  Fe 
Li     1  0.2222240000000 -0.1400070000000 -0.2120880000000 1.0  -0.02
Li     1 -0.2222240000000  0.1400070000000  0.2120880000000 1.0  -0.02
O      2  0.0906490000000 -0.3321940000000  0.3218530000000 1.0   0.04
O      2  0.5351200000000 -0.1295480000000  0.2902490000000 1.0   0.05
O      2  0.1257260000000  0.0787530000000  0.3213300000000 1.0   0.06
O      2  0.2096130000000 -0.1810150000000  0.0374900000000 1.0   0.02
O      2 -0.0906490000000  0.3321940000000 -0.3218530000000 1.0   0.04
O      2 -0.5351200000000  0.1295480000000 -0.2902490000000 1.0   0.05
O      2 -0.1257260000000 -0.0787530000000 -0.3213300000000 1.0   0.06
O      2 -0.2096130000000  0.1810150000000 -0.0374900000000 1.0   0.02
F      3 -0.6147840000000 -0.3747200000000 -0.3562210000000 1.0   0.10
F      3  0.6147840000000  0.3747200000000  0.3562210000000 1.0   0.10
S      4  0.2395430000000 -0.1477860000000  0.2376190000000 1.0   0.01
S      4 -0.2395430000000  0.1477860000000 -0.2376190000000 1.0   0.01
Fe     5 -0.2783860000000 -0.3106430000000  0.4682300000000 1.0   3.74
Fe     5  0.2783860000000  0.3106430000000 -0.4682300000000 1.0   3.74
END
