TITL 2LiFeSO4F-200818-212402-4be5f6 0.0119 246.465872 -7.56555204E+003 8.00000 8.10994 16 (P-1) n - 1
REM
REM Run started: Wed, 19 Aug 2020 02:42:46 +0100 in /lustre/scratch/uccabz1/launch_tmp/launcher_2020-08-18-20-24-00-102211
REM CASTEP 20.1 from code version af48c487+ pr-geom-scf-spinfix Tue Jun 2 15:39:59 2020 +0100
REM Functional Perdew Burke Ernzerhof Relativity Koelling-Harmon Dispersion off
REM Cut-off 340.0000 eV Grid scale 1.7500 Gmax 16.5316 1/A FBSC none
REM MP grid 4 3 3 Offset 0.000 0.000 0.000 No. kpts 18 Spacing 0.07
REM Total runtime: 22307.2 s
REM Overall efficiency: 96.6667 %
REM
REM 2LiFeSO4F.cell (6abdf011d38848201efe8211ff585b1c)
REM
REM compiler GCC version 4.9.2
REM options -cpp -iprefix /lustre/shared/ucl/apps/gcc/4.9.2/bin/../lib/gcc/x86_64-unknown-linux-gnu/4.9.2/ -mtune=corei7 -march=x86-64 -g -Og
REM COMMAND_LINE
REM seed 687100769 -2074339067 1269703311 831335653 -1401953881 -275499652 -477900666 -1955233473 -309210009 516082318 -1124328417 198563077
REM
REM S 3|1.8|5|6|7|30:31:32(qc=5)
REM O 2|1.5|12|13|15|20:21(qc=5)
REM Li 1|1.3|8|9|10|10U:20(qc=5)
REM Fe 3|2.2|2.0|1.0|8|9|10|40:41:32(qc=5)
REM F 2|1.6|10|12|13|20:21(qc=5)
REM 
CELL 1.54180    5.44762    8.55563    9.85189  134.59592  129.01512   72.07110
LATT -1
SFAC Li O  F  S  Fe 
Li     1 -0.2146570000000  0.2699110000000  0.2703130000000 1.0  -0.01
Li     1  0.2146570000000 -0.2699110000000 -0.2703130000000 1.0  -0.01
O      2  0.2583360000000  0.2184480000000 -0.2643930000000 1.0   0.04
O      2  0.6713320000000  0.3855530000000 -0.1907290000000 1.0   0.09
O      2  0.1175960000000  0.4454010000000 -0.3650410000000 1.0   0.01
O      2  0.2067310000000  0.0734940000000 -0.6054910000000 1.0   0.04
O      2 -0.2583360000000 -0.2184480000000  0.2643930000000 1.0   0.04
O      2 -0.6713320000000 -0.3855530000000  0.1907290000000 1.0   0.09
O      2 -0.1175960000000 -0.4454010000000  0.3650410000000 1.0   0.01
O      2 -0.2067310000000 -0.0734940000000  0.6054910000000 1.0   0.04
F      3  0.3485110000000  0.1844980000000  0.0708060000000 1.0   0.11
F      3 -0.3485110000000 -0.1844980000000 -0.0708060000000 1.0   0.11
S      4  0.3060490000000  0.2782070000000 -0.3578700000000 1.0   0.02
S      4 -0.3060490000000 -0.2782070000000  0.3578700000000 1.0   0.02
Fe     5 -0.0764180000000 -0.2620620000000  0.1144150000000 1.0   3.69
Fe     5  0.0764180000000  0.2620620000000 -0.1144150000000 1.0   3.69
END
