TITL 2LiFeSO4F-200804-051501-6dcc30 0.1268 269.875325 -7.55733200E+003 4.01646 6.89163 16 (P21/m) n - 1
REM
REM Run started: Tue, 04 Aug 2020 07:54:26 +0100 in /lustre/scratch/uccabz1/launch_tmp/launcher_2020-08-04-04-14-59-565639
REM CASTEP 20.1 from code version af48c487+ pr-geom-scf-spinfix Tue Jun 2 15:39:59 2020 +0100
REM Functional Perdew Burke Ernzerhof Relativity Koelling-Harmon Dispersion off
REM Cut-off 340.0000 eV Grid scale 1.7500 Gmax 16.5316 1/A FBSC none
REM MP grid 3 3 2 Offset 0.000 0.000 0.000 No. kpts 6 Spacing 0.07
REM Total runtime: 10398.2 s
REM Overall efficiency: 83.5 %
REM
REM 2LiFeSO4F.cell (6abdf011d38848201efe8211ff585b1c)
REM
REM compiler GCC version 4.9.2
REM options -cpp -iprefix /lustre/shared/ucl/apps/gcc/4.9.2/bin/../lib/gcc/x86_64-unknown-linux-gnu/4.9.2/ -mtune=corei7 -march=x86-64 -g -Og
REM COMMAND_LINE
REM seed 133958090 1593635568 -1335417844 -1617190017 -1547933718 1766965937 313075413 -1581181480 158125717 -1524219146 -2075894975 957429059
REM
REM S 3|1.8|5|6|7|30:31:32(qc=5)
REM O 2|1.5|12|13|15|20:21(qc=5)
REM Li 1|1.3|8|9|10|10U:20(qc=5)
REM Fe 3|2.2|2.0|1.0|8|9|10|40:41:32(qc=5)
REM F 2|1.6|10|12|13|20:21(qc=5)
REM 
CELL 1.54180    6.38627    5.11254    9.75195   90.00000  122.04902   90.00000
LATT -1
SFAC Li O  F  S  Fe 
Li     1  0.5039110000000  0.2500000000000  0.1396880000000 1.0  -0.04
Li     1 -0.5039110000000 -0.2500000000000 -0.1396880000000 1.0  -0.04
O      2  0.0043800000000  0.5002020000000  0.2266870000000 1.0  -0.10
O      2  0.3716870000000  0.3916650000000  0.6794420000000 1.0   0.02
O      2 -0.0043800000000  0.0002020000000 -0.2266870000000 1.0  -0.10
O      2 -0.3716870000000 -0.1083350000000 -0.6794420000000 1.0   0.02
O      2 -0.0043800000000 -0.5002020000000 -0.2266870000000 1.0  -0.10
O      2 -0.3716870000000 -0.3916650000000 -0.6794420000000 1.0   0.02
O      2  0.0043800000000 -0.0002020000000  0.2266870000000 1.0  -0.10
O      2  0.3716870000000  0.1083350000000  0.6794420000000 1.0   0.02
F      3 -0.5000000000000 -0.0000000000000  0.0000000000000 1.0   0.07
F      3 -0.5000000000000 -0.5000000000000  0.0000000000000 1.0   0.07
S      4 -0.1562630000000 -0.2500000000000 -0.2717310000000 1.0  -0.40
S      4  0.1562630000000  0.2500000000000  0.2717310000000 1.0  -0.40
Fe     5  0.2256110000000  0.2500000000000 -0.2195840000000 1.0   2.55
Fe     5 -0.2256110000000 -0.2500000000000  0.2195840000000 1.0   2.55
END
