TITL 2LiFeSO4F-200818-224958-c20b38 0.0731 221.975132 -7.56555121E+003 8.00000 8.08046 16 (Cc) n - 1
REM
REM Run started: Wed, 19 Aug 2020 01:20:17 +0100 in /lustre/scratch/uccabz1/launch_tmp/launcher_2020-08-18-21-49-56-767416
REM CASTEP 20.1 from code version af48c487+ pr-geom-scf-spinfix Tue Jun 2 15:39:59 2020 +0100
REM Functional Perdew Burke Ernzerhof Relativity Koelling-Harmon Dispersion off
REM Cut-off 340.0000 eV Grid scale 1.7500 Gmax 16.5316 1/A FBSC none
REM MP grid 4 4 2 Offset 0.000 0.000 0.000 No. kpts 10 Spacing 0.07
REM Total runtime: 9863.67 s
REM Overall efficiency: 95.0833 %
REM
REM 2LiFeSO4F.cell (6abdf011d38848201efe8211ff585b1c)
REM
REM compiler GCC version 4.9.2
REM options -cpp -iprefix /lustre/shared/ucl/apps/gcc/4.9.2/bin/../lib/gcc/x86_64-unknown-linux-gnu/4.9.2/ -mtune=corei7 -march=x86-64 -g -Og
REM COMMAND_LINE
REM seed -349680160 1634241741 -2012934133 -518940074 -2098295946 663787267 -932149197 1220846397 1052723959 -2319914 1535194672 412499658
REM
REM S 3|1.8|5|6|7|30:31:32(qc=5)
REM O 2|1.5|12|13|15|20:21(qc=5)
REM Li 1|1.3|8|9|10|10U:20(qc=5)
REM Fe 3|2.2|2.0|1.0|8|9|10|40:41:32(qc=5)
REM F 2|1.6|10|12|13|20:21(qc=5)
REM 
CELL 1.54180    5.00168    5.00168   10.03873   99.28507   99.28507  112.52411
LATT -1
SFAC Li O  F  S  Fe 
Li     1  0.5153850000000 -0.1061240000000  0.0841290000000 1.0  -0.03
Li     1  0.3938760000000  0.0153850000000 -0.4158710000000 1.0  -0.03
O      2  0.1768560000000 -0.2195580000000  0.1633520000000 1.0   0.01
O      2 -0.1487930000000 -0.0115430000000  0.2558160000000 1.0   0.05
O      2  0.3740840000000  0.1892850000000  0.3831370000000 1.0   0.05
O      2  0.0505800000000 -0.3065690000000  0.3853180000000 1.0   0.05
O      2  0.2804420000000 -0.3231440000000 -0.3366480000000 1.0   0.01
O      2  0.4884570000000 -0.6487930000000 -0.2441840000000 1.0   0.05
O      2  0.6892850000000 -0.1259160000000 -0.1168630000000 1.0   0.05
O      2  0.1934310000000 -0.4494200000000 -0.1146820000000 1.0   0.05
F      3 -0.2138540000000  0.0956830000000 -0.4385090000000 1.0   0.12
F      3  0.5956830000000  0.2861460000000  0.0614910000000 1.0   0.12
S      4  0.1142160000000 -0.0912560000000  0.2910700000000 1.0   0.01
S      4  0.4087440000000 -0.3857840000000 -0.2089300000000 1.0   0.01
Fe     5 -0.1681850000000  0.3018040000000  0.4187630000000 1.0   3.72
Fe     5 -0.1981960000000  0.3318150000000 -0.0812370000000 1.0   3.72
END
