TITL 2LiFeSO4F-200804-051332-d037c2 0.0452 246.216419 -7.56538594E+003 8.00000 8.15358 16 (P21) n - 1
REM
REM Run started: Tue, 04 Aug 2020 06:30:17 +0100 in /lustre/scratch/uccabz1/launch_tmp/launcher_2020-08-04-04-13-28-840896
REM CASTEP 20.1 from code version af48c487+ pr-geom-scf-spinfix Tue Jun 2 15:39:59 2020 +0100
REM Functional Perdew Burke Ernzerhof Relativity Koelling-Harmon Dispersion off
REM Cut-off 340.0000 eV Grid scale 1.7500 Gmax 16.5316 1/A FBSC none
REM MP grid 3 3 2 Offset 0.000 0.000 0.000 No. kpts 6 Spacing 0.07
REM Total runtime: 4929.3 s
REM Overall efficiency: 80.3333 %
REM
REM 2LiFeSO4F.cell (6abdf011d38848201efe8211ff585b1c)
REM
REM compiler GCC version 4.9.2
REM options -cpp -iprefix /lustre/shared/ucl/apps/gcc/4.9.2/bin/../lib/gcc/x86_64-unknown-linux-gnu/4.9.2/ -mtune=corei7 -march=x86-64 -g -Og
REM COMMAND_LINE
REM seed 524463612 534441156 -1410615531 396607440 -1610367277 -707381647 -838714903 417136093 -1934856211 1098418947 257171258 -2079765585
REM
REM S 3|1.8|5|6|7|30:31:32(qc=5)
REM O 2|1.5|12|13|15|20:21(qc=5)
REM Li 1|1.3|8|9|10|10U:20(qc=5)
REM Fe 3|2.2|2.0|1.0|8|9|10|40:41:32(qc=5)
REM F 2|1.6|10|12|13|20:21(qc=5)
REM 
CELL 1.54180    4.85068    6.94165    7.32418   90.00000   93.26916   90.00000
LATT -1
SFAC Li O  F  S  Fe 
Li     1  0.2533220000000 -0.0104150000000 -0.1418080000000 1.0  -0.01
Li     1 -0.2533220000000 -0.5104150000000  0.1418080000000 1.0  -0.01
O      2  0.0795870000000 -0.3969610000000  0.2832150000000 1.0   0.05
O      2  0.4939350000000 -0.1909760000000  0.3043470000000 1.0   0.06
O      2  0.0479410000000 -0.0604090000000  0.3867850000000 1.0   0.06
O      2  0.1261340000000 -0.1327630000000  0.0650140000000 1.0   0.02
O      2 -0.0795870000000  0.1030390000000 -0.2832150000000 1.0   0.05
O      2 -0.4939350000000  0.3090240000000 -0.3043470000000 1.0   0.06
O      2 -0.0479410000000  0.4395910000000 -0.3867850000000 1.0   0.06
O      2 -0.1261340000000  0.3672370000000 -0.0650140000000 1.0   0.02
F      3 -0.4714500000000  0.3480490000000  0.2886680000000 1.0   0.12
F      3  0.4714500000000 -0.1519510000000 -0.2886680000000 1.0   0.12
S      4  0.1861930000000 -0.1930660000000  0.2559210000000 1.0   0.02
S      4 -0.1861930000000  0.3069340000000 -0.2559210000000 1.0   0.02
Fe     5 -0.2788750000000 -0.0957890000000 -0.4692870000000 1.0   3.68
Fe     5  0.2788750000000  0.4042110000000  0.4692870000000 1.0   3.68
END
