TITL 2LiFeSO4F-200819-022315-0780cb 0.0149 205.911943 -7.56109123E+003 5.34638 5.63821 16 (Pmn21) n - 1
REM
REM Run started: Wed, 19 Aug 2020 03:02:07 +0100 in /lustre/scratch/uccabz1/launch_tmp/launcher_2020-08-19-01-23-12-561463
REM CASTEP 20.1 from code version af48c487+ pr-geom-scf-spinfix Tue Jun 2 15:39:59 2020 +0100
REM Functional Perdew Burke Ernzerhof Relativity Koelling-Harmon Dispersion off
REM Cut-off 340.0000 eV Grid scale 1.7500 Gmax 16.5316 1/A FBSC none
REM MP grid 4 3 2 Offset 0.000 0.000 0.000 No. kpts 4 Spacing 0.07
REM Total runtime: 2382.13 s
REM Overall efficiency: 71.8571 %
REM
REM 2LiFeSO4F.cell (6abdf011d38848201efe8211ff585b1c)
REM
REM compiler GCC version 4.9.2
REM options -cpp -iprefix /lustre/shared/ucl/apps/gcc/4.9.2/bin/../lib/gcc/x86_64-unknown-linux-gnu/4.9.2/ -mtune=corei7 -march=x86-64 -g -Og
REM COMMAND_LINE
REM seed 989101730 701175781 323908916 -22528942 -1085804138 1667514489 -147933210 -49755305 613865104 59471877 -859405220 1834384400
REM
REM S 3|1.8|5|6|7|30:31:32(qc=5)
REM O 2|1.5|12|13|15|20:21(qc=5)
REM Li 1|1.3|8|9|10|10U:20(qc=5)
REM Fe 3|2.2|2.0|1.0|8|9|10|40:41:32(qc=5)
REM F 2|1.6|10|12|13|20:21(qc=5)
REM 
CELL 1.54180    4.00392    5.24916    9.79729   90.00000   90.00000   90.00000
LATT -1
SFAC Li O  F  S  Fe 
Li     1  0.3080850000000  0.5000000000000  0.0470110000000 1.0  -0.00
Li     1 -0.3080850000000 -0.0000000000000 -0.4529890000000 1.0  -0.00
O      2  0.2448880000000 -0.2785680000000  0.2110270000000 1.0   0.11
O      2 -0.2563280000000 -0.2285300000000 -0.0554010000000 1.0   0.08
O      2 -0.2448880000000 -0.2214320000000 -0.2889730000000 1.0   0.11
O      2  0.2563280000000 -0.2714700000000 -0.5554010000000 1.0   0.08
O      2 -0.2448880000000  0.2214320000000 -0.2889730000000 1.0   0.11
O      2  0.2563280000000  0.2714700000000 -0.5554010000000 1.0   0.08
O      2  0.2448880000000  0.2785680000000  0.2110270000000 1.0   0.11
O      2 -0.2563280000000  0.2285300000000 -0.0554010000000 1.0   0.08
F      3 -0.2442090000000 -0.0000000000000  0.3426780000000 1.0   0.03
F      3  0.2442090000000  0.5000000000000 -0.1573220000000 1.0   0.03
S      4 -0.1447700000000 -0.0000000000000 -0.1680440000000 1.0   0.07
S      4  0.1447700000000  0.5000000000000  0.3319560000000 1.0   0.07
Fe     5  0.2678470000000 -0.0000000000000  0.3244470000000 1.0   2.20
Fe     5 -0.2678470000000  0.5000000000000 -0.1755530000000 1.0   2.20
END
