TITL 2LiFeSO4F-200819-012028-0fe914 -0.0213 252.353095 -7.56547677E+003 8.00000 8.15606 16 (Cm) n - 1
REM
REM Run started: Wed, 19 Aug 2020 03:19:59 +0100 in /lustre/scratch/uccabz1/launch_tmp/launcher_2020-08-19-00-20-25-220951
REM CASTEP 20.1 from code version af48c487+ pr-geom-scf-spinfix Tue Jun 2 15:39:59 2020 +0100
REM Functional Perdew Burke Ernzerhof Relativity Koelling-Harmon Dispersion off
REM Cut-off 340.0000 eV Grid scale 1.7500 Gmax 16.5316 1/A FBSC none
REM MP grid 4 3 2 Offset 0.000 0.000 0.000 No. kpts 12 Spacing 0.07
REM Total runtime: 8416.56 s
REM Overall efficiency: 75.3333 %
REM
REM 2LiFeSO4F.cell (6abdf011d38848201efe8211ff585b1c)
REM
REM compiler GCC version 4.9.2
REM options -cpp -iprefix /lustre/shared/ucl/apps/gcc/4.9.2/bin/../lib/gcc/x86_64-unknown-linux-gnu/4.9.2/ -mtune=corei7 -march=x86-64 -g -Og
REM COMMAND_LINE
REM seed -128511804 771679790 -1772084682 -1871210707 95789757 -269153019 -295588951 -1004747857 -663540624 558758699 -846044372 334411077
REM
REM S 3|1.8|5|6|7|30:31:32(qc=5)
REM O 2|1.5|12|13|15|20:21(qc=5)
REM Li 1|1.3|8|9|10|10U:20(qc=5)
REM Fe 3|2.2|2.0|1.0|8|9|10|40:41:32(qc=5)
REM F 2|1.6|10|12|13|20:21(qc=5)
REM 
CELL 1.54180    4.59086    7.60418    8.63168  109.69659   95.42785  112.89110
LATT -1
SFAC Li O  F  S  Fe 
Li     1 -0.5674410000000 -0.4344330000000 -0.3146260000000 1.0  -0.02
Li     1 -0.2528150000000 -0.1198070000000  0.3146270000000 1.0  -0.02
O      2  0.4206910000000  0.0288860000000 -0.2263270000000 1.0   0.07
O      2 -0.0721140000000 -0.0842480000000 -0.4463690000000 1.0   0.05
O      2 -0.1120010000000 -0.2234600000000 -0.2251360000000 1.0   0.01
O      2  0.1641900000000 -0.3294320000000 -0.4447990000000 1.0   0.05
O      2  0.6470180000000  0.2552130000000  0.2263270000000 1.0   0.07
O      2  0.3742560000000  0.3621210000000  0.4463690000000 1.0   0.05
O      2  0.1131350000000  0.0016760000000  0.2251360000000 1.0   0.01
O      2  0.6089890000000  0.1153680000000  0.4447990000000 1.0   0.05
F      3  0.1801750000000  0.4003850000000  0.7774950000000 1.0   0.13
F      3 -0.5973200000000 -0.3771100000000 -0.7774940000000 1.0   0.13
S      4  0.0930750000000 -0.1554210000000 -0.3349080000000 1.0   0.01
S      4  0.4279830000000  0.1794860000000  0.3349080000000 1.0   0.01
Fe     5  1.1051830000000  0.4625400000000  0.3096740000000 1.0   3.70
Fe     5  0.7955090000000  0.1528660000000 -0.3096740000000 1.0   3.70
END
