TITL 2LiFeSO4F-200804-041033-eab464 0.0326 235.892466 -7.56549969E+003 8.00000 8.10713 16 (Pc) n - 1
REM
REM Run started: Tue, 04 Aug 2020 05:55:55 +0100 in /lustre/scratch/uccabz1/launch_tmp/launcher_2020-08-04-03-10-32-108335
REM CASTEP 20.1 from code version af48c487+ pr-geom-scf-spinfix Tue Jun 2 15:39:59 2020 +0100
REM Functional Perdew Burke Ernzerhof Relativity Koelling-Harmon Dispersion off
REM Cut-off 340.0000 eV Grid scale 1.7500 Gmax 16.5316 1/A FBSC none
REM MP grid 3 3 3 Offset 0.000 0.000 0.000 No. kpts 10 Spacing 0.07
REM Total runtime: 7366.31 s
REM Overall efficiency: 79.5833 %
REM
REM 2LiFeSO4F.cell (6abdf011d38848201efe8211ff585b1c)
REM
REM compiler GCC version 4.9.2
REM options -cpp -iprefix /lustre/shared/ucl/apps/gcc/4.9.2/bin/../lib/gcc/x86_64-unknown-linux-gnu/4.9.2/ -mtune=corei7 -march=x86-64 -g -Og
REM COMMAND_LINE
REM seed 2111100527 668373836 -763096645 1662321735 -2083371947 -20269403 -465719352 44734872 512260469 1916236555 -7009501 1442319172
REM
REM S 3|1.8|5|6|7|30:31:32(qc=5)
REM O 2|1.5|12|13|15|20:21(qc=5)
REM Li 1|1.3|8|9|10|10U:20(qc=5)
REM Fe 3|2.2|2.0|1.0|8|9|10|40:41:32(qc=5)
REM F 2|1.6|10|12|13|20:21(qc=5)
REM 
CELL 1.54180    4.94439    7.05860    6.99219   90.00000   90.00000   75.16149
LATT -1
SFAC Li O  F  S  Fe 
Li     1  0.7347390000000  0.4064170000000 -0.1580800000000 1.0  -0.02
Li     1  0.2347390000000 -0.0935830000000  0.1580800000000 1.0  -0.02
O      2 -0.1029390000000  0.5082380000000  0.3096660000000 1.0   0.06
O      2  0.1038980000000  0.1499780000000  0.2894620000000 1.0   0.05
O      2  0.3933700000000  0.3839390000000  0.2337220000000 1.0   0.06
O      2  0.0473890000000  0.3462400000000 -0.0016460000000 1.0   0.02
O      2 -0.6029390000000  0.0082380000000 -0.3096660000000 1.0   0.06
O      2 -0.3961020000000 -0.3500220000000 -0.2894620000000 1.0   0.05
O      2 -0.1066300000000 -0.1160610000000 -0.2337220000000 1.0   0.06
O      2 -0.4526110000000 -0.1537600000000  0.0016460000000 1.0   0.02
F      3 -0.2622340000000  0.2782830000000 -0.3868940000000 1.0   0.09
F      3 -0.7622340000000 -0.2217170000000  0.3868940000000 1.0   0.09
S      4  0.1062680000000  0.3502340000000  0.2059550000000 1.0   0.01
S      4 -0.3937320000000 -0.1497660000000 -0.2059550000000 1.0   0.01
Fe     5  0.0328100000000  0.0308260000000 -0.4497950000000 1.0   3.73
Fe     5 -0.4671900000000 -0.4691740000000  0.4497950000000 1.0   3.73
END
