TITL 2LiFeSO4F-200804-024352-9e0702 -0.0214 253.342952 -7.56556817E+003 8.00000 8.08468 16 (C2/m) n - 1
REM
REM Run started: Tue, 04 Aug 2020 06:12:04 +0100 in /lustre/scratch/uccabz1/launch_tmp/launcher_2020-08-04-01-43-47-987899
REM CASTEP 20.1 from code version af48c487+ pr-geom-scf-spinfix Tue Jun 2 15:39:59 2020 +0100
REM Functional Perdew Burke Ernzerhof Relativity Koelling-Harmon Dispersion off
REM Cut-off 340.0000 eV Grid scale 1.7500 Gmax 16.5316 1/A FBSC none
REM MP grid 4 3 2 Offset 0.000 0.000 0.000 No. kpts 12 Spacing 0.07
REM Total runtime: 12609.8 s
REM Overall efficiency: 69.9231 %
REM
REM 2LiFeSO4F.cell (6abdf011d38848201efe8211ff585b1c)
REM
REM compiler GCC version 4.9.2
REM options -cpp -iprefix /lustre/shared/ucl/apps/gcc/4.9.2/bin/../lib/gcc/x86_64-unknown-linux-gnu/4.9.2/ -mtune=corei7 -march=x86-64 -g -Og
REM COMMAND_LINE
REM seed -2077659995 274093394 -803941229 1065808453 746855938 723971424 -327253219 -1975829315 -1289560737 793945240 1736929111 1269647620
REM
REM S 3|1.8|5|6|7|30:31:32(qc=5)
REM O 2|1.5|12|13|15|20:21(qc=5)
REM Li 1|1.3|8|9|10|10U:20(qc=5)
REM Fe 3|2.2|2.0|1.0|8|9|10|40:41:32(qc=5)
REM F 2|1.6|10|12|13|20:21(qc=5)
REM 
CELL 1.54180    4.72509    6.03423    9.58430  108.34861  101.74397   90.00000
LATT -1
SFAC Li O  F  S  Fe 
Li     1  0.0568220000000  0.3598370000000 -0.2902730000000 1.0  -0.01
Li     1 -0.0568220000000 -0.3498900000000  0.2902730000000 1.0  -0.01
O      2  0.2476090000000 -0.0600620000000 -0.1435040000000 1.0   0.02
O      2 -0.1200110000000 -0.3612940000000 -0.3274010000000 1.0   0.05
O      2  0.2610130000000 -0.2008010000000 -0.4154480000000 1.0   0.08
O      2 -0.1222390000000  0.0477420000000 -0.3297020000000 1.0   0.05
O      2 -0.2476090000000  0.0834420000000  0.1435040000000 1.0   0.02
O      2  0.1200110000000 -0.0338930000000  0.3274010000000 1.0   0.05
O      2 -0.2610130000000  0.2146470000000  0.4154480000000 1.0   0.08
O      2  0.1222390000000  0.3774440000000  0.3297020000000 1.0   0.05
F      3 -0.6159450000000  0.3238410000000 -0.3643350000000 1.0   0.09
F      3  0.6159450000000 -0.3118240000000  0.3643350000000 1.0   0.09
S      4  0.0717280000000 -0.1394330000000 -0.2953420000000 1.0   0.01
S      4 -0.0717280000000  0.1559080000000  0.2953420000000 1.0   0.01
Fe     5  0.5001620000000  0.0042280000000  0.4994870000000 1.0   3.71
Fe     5 -0.5001620000000 -0.4952590000000 -0.4994870000000 1.0   3.71
END
