TITL 2LiFeSO4F-200818-230056-dce9d2 0.0602 360.264815 -7.56296932E+003 6.00023 6.36396 16 (Pm) n - 1
REM
REM Run started: Wed, 19 Aug 2020 06:49:48 +0100 in /lustre/scratch/uccabz1/launch_tmp/launcher_2020-08-18-22-00-53-943584
REM CASTEP 20.1 from code version af48c487+ pr-geom-scf-spinfix Tue Jun 2 15:39:59 2020 +0100
REM Functional Perdew Burke Ernzerhof Relativity Koelling-Harmon Dispersion off
REM Cut-off 340.0000 eV Grid scale 1.7500 Gmax 16.5316 1/A FBSC none
REM MP grid 3 3 2 Offset 0.000 0.000 0.000 No. kpts 5 Spacing 0.07
REM Total runtime: 31386.1 s
REM Overall efficiency: 72.1667 %
REM
REM 2LiFeSO4F.cell (6abdf011d38848201efe8211ff585b1c)
REM
REM compiler GCC version 4.9.2
REM options -cpp -iprefix /lustre/shared/ucl/apps/gcc/4.9.2/bin/../lib/gcc/x86_64-unknown-linux-gnu/4.9.2/ -mtune=corei7 -march=x86-64 -g -Og
REM COMMAND_LINE
REM seed -1218033029 31539259 -954129021 -298034265 -1803705338 1164807193 686651681 1263169518 -1262676369 -2097865961 52602989 65680615
REM
REM S 3|1.8|5|6|7|30:31:32(qc=5)
REM O 2|1.5|12|13|15|20:21(qc=5)
REM Li 1|1.3|8|9|10|10U:20(qc=5)
REM Fe 3|2.2|2.0|1.0|8|9|10|40:41:32(qc=5)
REM F 2|1.6|10|12|13|20:21(qc=5)
REM 
CELL 1.54180    5.24262    7.69617    9.54498   90.00000   90.00000   69.30199
LATT -1
SFAC Li O  F  S  Fe 
Li     1  0.7193130000000  0.1189690000000  0.0000000000000 1.0  -0.06
Li     1 -0.4522350000000 -0.4364840000000 -0.5000000000000 1.0  -0.01
O      2  0.0753780000000  0.3878330000000  0.1899180000000 1.0   0.08
O      2 -0.2840140000000  0.3846610000000  0.3524390000000 1.0   0.02
O      2  0.1776880000000  0.1405550000000  0.3572760000000 1.0   0.03
O      2 -0.1395050000000  0.1502370000000  0.1656820000000 1.0   0.02
O      2  0.0753780000000  0.3878330000000 -0.1899180000000 1.0   0.08
O      2 -0.2840140000000  0.3846610000000 -0.3524390000000 1.0   0.02
O      2  0.1776880000000  0.1405550000000 -0.3572760000000 1.0   0.03
O      2 -0.1395050000000  0.1502370000000 -0.1656820000000 1.0   0.02
F      3  0.3670900000000 -0.2254970000000  0.3711720000000 1.0   0.04
F      3  0.3670900000000 -0.2254970000000 -0.3711720000000 1.0   0.04
S      4 -0.0558900000000  0.2645380000000  0.2689160000000 1.0   0.01
S      4 -0.0558900000000  0.2645380000000 -0.2689160000000 1.0   0.01
Fe     5  0.2620810000000 -0.0425620000000 -0.5000000000000 1.0   2.39
Fe     5  0.0817250000000 -0.5766460000000  0.0000000000000 1.0   3.29
END
