TITL 2LiFeSO4F-200818-180211-ff8f8f 0.0174 264.348329 -7.56005142E+003 7.11412 7.69149 16 (Pmc21) n - 1
REM
REM Run started: Tue, 18 Aug 2020 19:25:15 +0100 in /scratch/scratch/uccabz1/launch_tmp/launcher_2020-08-18-17-02-08-954911
REM CASTEP 19.11| from code version Version unavailable
REM Functional Perdew Burke Ernzerhof Relativity Koelling-Harmon Dispersion off
REM Cut-off 340.0000 eV Grid scale 1.7500 Gmax 16.5316 1/A FBSC none
REM MP grid 3 3 2 Offset 0.000 0.000 0.000 No. kpts 4 Spacing 0.07
REM Total runtime: 5325.11 s
REM Overall efficiency: 79.4167 %
REM
REM 2LiFeSO4F.cell (6abdf011d38848201efe8211ff585b1c)
REM
REM compiler GCC version 4.9.2
REM options -cpp -iprefix /scratch/UCL/applications/gcc/4.9.2/bin/../lib/gcc/x86_64-unknown-linux-gnu/4.9.2/ -mtune=corei7 -march=x86-64 -g -O2
REM COMMAND_LINE
REM seed -1252017441 -2083452548 -786878534 237751523 -949909067 1084776878 -749289588 1355693232 -872210857 -1793441474 783779138 2098935687
REM
REM S 3|1.8|5|6|7|30:31:32(qc=5)
REM O 2|1.5|12|13|15|20:21(qc=5)
REM Li 1|1.3|8|9|10|10U:20(qc=5)
REM Fe 3|2.2|2.0|1.0|8|9|10|40:41:32(qc=5)
REM F 2|1.6|10|12|13|20:21(qc=5)
REM 
CELL 1.54180    6.09496    5.14755    8.42568   90.00000   90.00000   90.00000
LATT -1
SFAC Li O  F  S  Fe 
Li     1 -0.5476360000000  0.0000000000000 -0.4622160000000 1.0   0.02
Li     1 -0.0476360000000  0.0000000000000  0.4622160000000 1.0   0.02
O      2 -0.5641670000000 -0.2445380000000  0.1795450000000 1.0  -0.01
O      2 -0.2906730000000 -0.2436310000000  0.5276250000000 1.0   0.31
O      2 -0.0641670000000  0.2445380000000 -0.1795450000000 1.0  -0.01
O      2  0.2093270000000  0.2436310000000 -0.5276250000000 1.0   0.31
O      2 -0.0641670000000 -0.2445380000000 -0.1795450000000 1.0  -0.01
O      2  0.2093270000000 -0.2436310000000 -0.5276250000000 1.0   0.31
O      2 -0.5641670000000  0.2445380000000  0.1795450000000 1.0  -0.01
O      2 -0.2906730000000  0.2436310000000  0.5276250000000 1.0   0.31
F      3  0.0037940000000  0.5000000000000  0.2035590000000 1.0   0.20
F      3  0.5037940000000  0.5000000000000 -0.2035590000000 1.0   0.20
S      4  0.0595600000000  0.0000000000000 -0.1559460000000 1.0  -0.06
S      4 -0.4404400000000  0.0000000000000  0.1559460000000 1.0  -0.06
Fe     5 -0.2768560000000 -0.5000000000000 -0.3509720000000 1.0   2.79
Fe     5  0.2231440000000  0.5000000000000  0.3509720000000 1.0   2.79
END
