TITL 2LiFeSO4F-200818-174137-8e0f7c 0.0144 203.924753 -7.56274502E+003 8.81358 9.13015 16 (P-1) n - 1
REM
REM Run started: Tue, 18 Aug 2020 21:10:42 +0100 in /lustre/scratch/uccabz1/launch_tmp/launcher_2020-08-18-16-41-34-801715
REM CASTEP 20.1 from code version af48c487+ pr-geom-scf-spinfix Tue Jun 2 15:39:59 2020 +0100
REM Functional Perdew Burke Ernzerhof Relativity Koelling-Harmon Dispersion off
REM Cut-off 340.0000 eV Grid scale 1.7500 Gmax 16.5316 1/A FBSC none
REM MP grid 4 3 2 Offset 0.000 0.000 0.000 No. kpts 12 Spacing 0.07
REM Total runtime: 13110 s
REM Overall efficiency: 73.2 %
REM
REM 2LiFeSO4F.cell (6abdf011d38848201efe8211ff585b1c)
REM
REM compiler GCC version 4.9.2
REM options -cpp -iprefix /lustre/shared/ucl/apps/gcc/4.9.2/bin/../lib/gcc/x86_64-unknown-linux-gnu/4.9.2/ -mtune=corei7 -march=x86-64 -g -Og
REM COMMAND_LINE
REM seed -903576655 -807415734 -523519846 -1882670278 -1550482186 1769219469 -1017971988 615827648 1812398017 -1959705122 1769935139 -587423778
REM
REM S 3|1.8|5|6|7|30:31:32(qc=5)
REM O 2|1.5|12|13|15|20:21(qc=5)
REM Li 1|1.3|8|9|10|10U:20(qc=5)
REM Fe 3|2.2|2.0|1.0|8|9|10|40:41:32(qc=5)
REM F 2|1.6|10|12|13|20:21(qc=5)
REM 
CELL 1.54180    4.81412    5.00174    9.49495   89.02142   65.00426   98.79581
LATT -1
SFAC Li O  F  S  Fe 
Li     1  0.5000000000000 -0.5000000000000 -0.5000000000000 1.0  -0.00
Li     1  0.0000000000000  0.0000000000000  0.5000000000000 1.0  -0.00
O      2  0.3017900000000  0.1754450000000  0.2830010000000 1.0   0.04
O      2 -0.1026650000000  0.3685400000000  0.2384990000000 1.0   0.04
O      2  0.4167020000000  0.6570070000000  0.1667040000000 1.0   0.03
O      2 -0.3017900000000 -0.1754450000000 -0.2830010000000 1.0   0.04
O      2  0.1026650000000 -0.3685400000000 -0.2384990000000 1.0   0.04
O      2 -0.4167020000000 -0.6570070000000 -0.1667040000000 1.0   0.03
O      2  0.0000000000000  0.0000000000000  0.0000000000000 1.0   0.68
O      2  0.0000000000000 -0.5000000000000  0.5000000000000 1.0   0.03
F      3  0.3231230000000  0.1599370000000 -0.3864010000000 1.0   0.12
F      3 -0.3231230000000 -0.1599370000000  0.3864010000000 1.0   0.12
S      4  0.1694400000000  0.4373930000000  0.2799770000000 1.0  -0.04
S      4 -0.1694400000000 -0.4373930000000 -0.2799770000000 1.0  -0.04
Fe     5 -0.6971710000000 -0.0024340000000 -0.1933460000000 1.0   3.86
Fe     5  0.6971710000000  0.0024340000000  0.1933460000000 1.0   3.86
END
