TITL 2LiFeSO4F-200804-034827-c63b8f 0.0451 226.851974 -7.56534665E+003 7.99963 8.10483 16 (P21) n - 1
REM
REM Run started: Tue, 04 Aug 2020 04:38:50 +0100 in /lustre/scratch/uccabz1/launch_tmp/launcher_2020-08-04-02-48-25-704754
REM CASTEP 20.1 from code version af48c487+ pr-geom-scf-spinfix Tue Jun 2 15:39:59 2020 +0100
REM Functional Perdew Burke Ernzerhof Relativity Koelling-Harmon Dispersion off
REM Cut-off 340.0000 eV Grid scale 1.7500 Gmax 16.5316 1/A FBSC none
REM MP grid 3 3 3 Offset 0.000 0.000 0.000 No. kpts 10 Spacing 0.07
REM Total runtime: 3065.41 s
REM Overall efficiency: 78.5714 %
REM
REM 2LiFeSO4F.cell (6abdf011d38848201efe8211ff585b1c)
REM
REM compiler GCC version 4.9.2
REM options -cpp -iprefix /lustre/shared/ucl/apps/gcc/4.9.2/bin/../lib/gcc/x86_64-unknown-linux-gnu/4.9.2/ -mtune=corei7 -march=x86-64 -g -Og
REM COMMAND_LINE
REM seed -2046505065 1631462275 1995969943 724187121 -1706762127 1506862921 676453687 1308454207 -857430062 87430213 1945603397 -1121474929
REM
REM S 3|1.8|5|6|7|30:31:32(qc=5)
REM O 2|1.5|12|13|15|20:21(qc=5)
REM Li 1|1.3|8|9|10|10U:20(qc=5)
REM Fe 3|2.2|2.0|1.0|8|9|10|40:41:32(qc=5)
REM F 2|1.6|10|12|13|20:21(qc=5)
REM 
CELL 1.54180    4.95091    6.45452    7.09996   90.00000   89.03354   90.00000
LATT -1
SFAC Li O  F  S  Fe 
Li     1 -0.2601310000000  0.0737990000000 -0.4623950000000 1.0  -0.00
Li     1  0.2601310000000 -0.4262010000000  0.4623950000000 1.0  -0.00
O      2 -0.4519300000000  0.3838680000000  0.3920790000000 1.0   0.02
O      2 -0.7233470000000  0.2631900000000  0.1304120000000 1.0   0.06
O      2 -0.3285260000000  0.0609080000000  0.2419890000000 1.0   0.05
O      2 -0.2674520000000  0.3887630000000  0.0647400000000 1.0   0.06
O      2  0.4519300000000 -0.1161320000000 -0.3920790000000 1.0   0.02
O      2  0.7233470000000 -0.2368100000000 -0.1304120000000 1.0   0.06
O      2  0.3285260000000 -0.4390920000000 -0.2419890000000 1.0   0.05
O      2  0.2674520000000 -0.1112370000000 -0.0647400000000 1.0   0.06
F      3  0.0526490000000 -0.2610280000000  0.3139380000000 1.0   0.10
F      3 -0.0526490000000  0.2389720000000 -0.3139380000000 1.0   0.10
S      4 -0.4411230000000  0.2773900000000  0.2067540000000 1.0   0.02
S      4  0.4411230000000 -0.2226100000000 -0.2067540000000 1.0   0.02
Fe     5 -0.0722920000000 -0.1262190000000  0.0898490000000 1.0   3.70
Fe     5  0.0722920000000  0.3737810000000 -0.0898490000000 1.0   3.70
END
