TITL 2LiFeSO4F-200818-175002-b6219f 0.0448 186.562082 -7.56057071E+003 3.99892 4.65499 16 (P-1) n - 1
REM
REM Run started: Tue, 18 Aug 2020 21:00:30 +0100 in /lustre/scratch/uccabz1/launch_tmp/launcher_2020-08-18-16-49-58-965072
REM CASTEP 20.1 from code version af48c487+ pr-geom-scf-spinfix Tue Jun 2 15:39:59 2020 +0100
REM Functional Perdew Burke Ernzerhof Relativity Koelling-Harmon Dispersion off
REM Cut-off 340.0000 eV Grid scale 1.7500 Gmax 16.5316 1/A FBSC none
REM MP grid 3 4 3 Offset 0.000 0.000 0.000 No. kpts 18 Spacing 0.07
REM Total runtime: 11559.6 s
REM Overall efficiency: 93.1667 %
REM
REM 2LiFeSO4F.cell (6abdf011d38848201efe8211ff585b1c)
REM
REM compiler GCC version 4.9.2
REM options -cpp -iprefix /lustre/shared/ucl/apps/gcc/4.9.2/bin/../lib/gcc/x86_64-unknown-linux-gnu/4.9.2/ -mtune=corei7 -march=x86-64 -g -Og
REM COMMAND_LINE
REM seed 299233470 -514451983 1589267803 -1510011148 1575122470 652611956 1110008522 309759502 2108536517 -1800270530 -1238942903 19087718
REM
REM S 3|1.8|5|6|7|30:31:32(qc=5)
REM O 2|1.5|12|13|15|20:21(qc=5)
REM Li 1|1.3|8|9|10|10U:20(qc=5)
REM Fe 3|2.2|2.0|1.0|8|9|10|40:41:32(qc=5)
REM F 2|1.6|10|12|13|20:21(qc=5)
REM 
CELL 1.54180    6.12630    4.65976    6.89594   91.30247   99.27223   73.84281
LATT -1
SFAC Li O  F  S  Fe 
Li     1 -0.5000000000000  0.5000000000000  0.5000000000000 1.0   0.00
Li     1  0.0000000000000 -0.5000000000000  0.0000000000000 1.0   0.00
O      2  0.5034540000000 -0.3382050000000  0.2207160000000 1.0   0.12
O      2  0.2462700000000 -0.2470780000000 -0.0823690000000 1.0   0.19
O      2 -0.0682540000000 -0.3031400000000  0.2845360000000 1.0   0.05
O      2  0.3607960000000 -0.7459480000000  0.0649330000000 1.0  -0.01
O      2 -0.5034540000000  0.3382050000000 -0.2207160000000 1.0   0.12
O      2 -0.2462700000000  0.2470780000000  0.0823690000000 1.0   0.19
O      2  0.0682540000000  0.3031400000000 -0.2845360000000 1.0   0.05
O      2 -0.3607960000000  0.7459480000000 -0.0649330000000 1.0  -0.01
F      3  0.3576040000000 -0.1130760000000 -0.4246790000000 1.0   0.06
F      3 -0.3576040000000  0.1130760000000  0.4246790000000 1.0   0.06
S      4  0.0000000000000 -0.5000000000000 -0.5000000000000 1.0  -0.10
S      4 -0.5000000000000  0.5000000000000  0.0000000000000 1.0  -0.01
Fe     5  0.3412830000000 -0.9460030000000 -0.1848720000000 1.0   1.64
Fe     5 -0.3412830000000  0.9460030000000  0.1848720000000 1.0   1.64
END
