TITL 2LiFeSO4F-200804-052039-3af7d8 0.0248 239.953471 -7.56433949E+003 8.00000 8.19475 16 (Cmm2) n - 1
REM
REM Run started: Tue, 04 Aug 2020 07:26:55 +0100 in /lustre/scratch/uccabz1/launch_tmp/launcher_2020-08-04-04-20-36-940023
REM CASTEP 20.1 from code version af48c487+ pr-geom-scf-spinfix Tue Jun 2 15:39:59 2020 +0100
REM Functional Perdew Burke Ernzerhof Relativity Koelling-Harmon Dispersion off
REM Cut-off 340.0000 eV Grid scale 1.7500 Gmax 16.5316 1/A FBSC none
REM MP grid 3 3 3 Offset 0.000 0.000 0.000 No. kpts 8 Spacing 0.07
REM Total runtime: 7628.14 s
REM Overall efficiency: 90.2727 %
REM
REM 2LiFeSO4F.cell (6abdf011d38848201efe8211ff585b1c)
REM
REM compiler GCC version 4.9.2
REM options -cpp -iprefix /lustre/shared/ucl/apps/gcc/4.9.2/bin/../lib/gcc/x86_64-unknown-linux-gnu/4.9.2/ -mtune=corei7 -march=x86-64 -g -Og
REM COMMAND_LINE
REM seed -95398879 450701537 -1041996276 1758122226 175094092 -2071873112 -2034662039 -166520563 -1144394083 269797895 1075825541 549645450
REM
REM S 3|1.8|5|6|7|30:31:32(qc=5)
REM O 2|1.5|12|13|15|20:21(qc=5)
REM Li 1|1.3|8|9|10|10U:20(qc=5)
REM Fe 3|2.2|2.0|1.0|8|9|10|40:41:32(qc=5)
REM F 2|1.6|10|12|13|20:21(qc=5)
REM 
CELL 1.54180    5.65752    6.38395    7.89491  113.84778  110.99595   90.00000
LATT -1
SFAC Li O  F  S  Fe 
Li     1 -0.0053100000000 -0.0053100000000 -0.0106210000000 1.0  -0.02
Li     1 -0.5053100000000 -0.5053100000000 -0.0106210000000 1.0  -0.02
O      2 -0.2811960000000  0.4008430000000  0.4240270000000 1.0   0.06
O      2 -0.1394720000000  0.5760250000000  0.1628670000000 1.0   0.03
O      2  0.7052230000000  0.0231840000000  0.4240270000000 1.0   0.06
O      2  0.3023390000000 -0.4131580000000  0.1628670000000 1.0   0.03
O      2  0.2188040000000  0.5231840000000  0.4240270000000 1.0   0.06
O      2  0.3605280000000  0.0868420000000  0.1628670000000 1.0   0.03
O      2  0.2052230000000 -0.0991570000000  0.4240270000000 1.0   0.06
O      2 -0.1976610000000  0.0760250000000  0.1628670000000 1.0   0.03
F      3 -0.1350140000000 -0.1350140000000 -0.2700290000000 1.0   0.12
F      3  0.3649860000000  0.3649860000000 -0.2700290000000 1.0   0.12
S      4  0.1443460000000 -0.3556540000000  0.2886920000000 1.0   0.01
S      4 -0.3556540000000  0.1443460000000  0.2886920000000 1.0   0.01
Fe     5 -0.2771360000000 -0.2771360000000 -0.5542720000000 1.0   3.70
Fe     5  0.2228640000000  0.2228640000000 -0.5542720000000 1.0   3.70
END
