TITL 2LiFeSO4F-200804-032010-eae79a 0.0315 206.214654 -7.56549367E+003 8.00000 8.10266 16 (P21) n - 1
REM
REM Run started: Tue, 04 Aug 2020 03:54:31 +0100 in /lustre/scratch/uccabz1/launch_tmp/launcher_2020-08-04-02-20-05-900882
REM CASTEP 20.1 from code version af48c487+ pr-geom-scf-spinfix Tue Jun 2 15:39:59 2020 +0100
REM Functional Perdew Burke Ernzerhof Relativity Koelling-Harmon Dispersion off
REM Cut-off 340.0000 eV Grid scale 1.7500 Gmax 16.5316 1/A FBSC none
REM MP grid 4 3 2 Offset 0.000 0.000 0.000 No. kpts 6 Spacing 0.07
REM Total runtime: 2088.68 s
REM Overall efficiency: 67.5 %
REM
REM 2LiFeSO4F.cell (6abdf011d38848201efe8211ff585b1c)
REM
REM compiler GCC version 4.9.2
REM options -cpp -iprefix /lustre/shared/ucl/apps/gcc/4.9.2/bin/../lib/gcc/x86_64-unknown-linux-gnu/4.9.2/ -mtune=corei7 -march=x86-64 -g -Og
REM COMMAND_LINE
REM seed 1541658035 942875853 2137679591 -1919749964 -1008822198 1145746180 -274113921 -1304861026 821459921 -1339559445 1443633893 907216101
REM
REM S 3|1.8|5|6|7|30:31:32(qc=5)
REM O 2|1.5|12|13|15|20:21(qc=5)
REM Li 1|1.3|8|9|10|10U:20(qc=5)
REM Fe 3|2.2|2.0|1.0|8|9|10|40:41:32(qc=5)
REM F 2|1.6|10|12|13|20:21(qc=5)
REM 
CELL 1.54180    4.89640    5.23239    8.73552   90.00000   90.00000  112.86654
LATT -1
SFAC Li O  F  S  Fe 
Li     1 -0.0578760000000 -0.2018940000000  0.2201020000000 1.0  -0.03
Li     1  0.0578760000000  0.2018940000000 -0.2798980000000 1.0  -0.03
O      2  0.3264330000000  0.5592420000000  0.4674260000000 1.0   0.06
O      2 -0.0935160000000  0.4323500000000  0.2898520000000 1.0   0.04
O      2 -0.1152690000000  0.1306730000000  0.5112870000000 1.0   0.02
O      2  0.2173150000000  0.1585730000000  0.2974160000000 1.0   0.04
O      2 -0.3264330000000 -0.5592420000000 -0.0325740000000 1.0   0.06
O      2  0.0935160000000 -0.4323500000000 -0.2101480000000 1.0   0.04
O      2  0.1152690000000 -0.1306730000000  0.0112870000000 1.0   0.02
O      2 -0.2173150000000 -0.1585730000000 -0.2025840000000 1.0   0.04
F      3  0.3999070000000  0.1513700000000 -0.3093320000000 1.0   0.13
F      3 -0.3999070000000 -0.1513700000000  0.1906680000000 1.0   0.13
S      4  0.0812990000000  0.3200650000000  0.3928650000000 1.0   0.02
S      4 -0.0812990000000 -0.3200650000000 -0.1071350000000 1.0   0.02
Fe     5 -0.4500500000000  0.1721510000000  0.1358250000000 1.0   3.72
Fe     5  0.4500500000000 -0.1721510000000 -0.3641750000000 1.0   3.72
END
