TITL 2LiFeSO4F-200819-025002-559fe6 -0.0172 264.622753 -7.56530547E+003 8.00000 8.19075 16 (Cm) n - 1
REM
REM Run started: Wed, 19 Aug 2020 06:00:23 +0100 in /lustre/scratch/uccabz1/launch_tmp/launcher_2020-08-19-01-50-00-973608
REM CASTEP 20.1 from code version af48c487+ pr-geom-scf-spinfix Tue Jun 2 15:39:59 2020 +0100
REM Functional Perdew Burke Ernzerhof Relativity Koelling-Harmon Dispersion off
REM Cut-off 340.0000 eV Grid scale 1.7500 Gmax 16.5316 1/A FBSC none
REM MP grid 4 3 2 Offset 0.000 0.000 0.000 No. kpts 12 Spacing 0.07
REM Total runtime: 11913.2 s
REM Overall efficiency: 88.9 %
REM
REM 2LiFeSO4F.cell (6abdf011d38848201efe8211ff585b1c)
REM
REM compiler GCC version 4.9.2
REM options -cpp -iprefix /lustre/shared/ucl/apps/gcc/4.9.2/bin/../lib/gcc/x86_64-unknown-linux-gnu/4.9.2/ -mtune=corei7 -march=x86-64 -g -Og
REM COMMAND_LINE
REM seed -430741561 -265413313 915142538 -594316594 -502656377 -1672760724 862204300 1637819969 139977013 55530769 913699648 318461242
REM
REM S 3|1.8|5|6|7|30:31:32(qc=5)
REM O 2|1.5|12|13|15|20:21(qc=5)
REM Li 1|1.3|8|9|10|10U:20(qc=5)
REM Fe 3|2.2|2.0|1.0|8|9|10|40:41:32(qc=5)
REM F 2|1.6|10|12|13|20:21(qc=5)
REM 
CELL 1.54180    4.97837    8.40686    8.09862  111.88611   93.46048  118.41702
LATT -1
SFAC Li O  F  S  Fe 
Li     1 -0.0108770000000 -0.4101200000000 -0.3054090000000 1.0  -0.02
Li     1  0.2945310000000 -0.1047120000000  0.3054090000000 1.0  -0.02
O      2 -0.1317600000000  0.1081350000000 -0.2411350000000 1.0   0.06
O      2 -0.6424430000000 -0.1570850000000 -0.2496860000000 1.0   0.01
O      2 -0.4907420000000 -0.1957830000000 -0.5444990000000 1.0   0.06
O      2 -0.6315640000000  0.0463310000000 -0.4099140000000 1.0   0.06
O      2  0.1093750000000  0.3492700000000  0.2411350000000 1.0   0.06
O      2 -0.3927570000000  0.0926000000000  0.2496850000000 1.0   0.01
O      2  0.0537570000000  0.3487160000000  0.5444990000000 1.0   0.06
O      2 -0.2216490000000  0.4562450000000  0.4099140000000 1.0   0.06
F      3 -0.1246940000000 -0.2929050000000 -0.7871520000000 1.0   0.12
F      3  0.6624580000000  0.4942470000000  0.7871520000000 1.0   0.12
S      4 -0.4747910000000 -0.0515240000000 -0.3552440000000 1.0   0.02
S      4 -0.1195470000000  0.3037200000000  0.3552440000000 1.0   0.02
Fe     5 -0.4406940000000 -0.4336870000000 -0.6930720000000 1.0   3.69
Fe     5  0.2523780000000  0.2593840000000  0.6930710000000 1.0   3.69
END
