TITL 2LiFeSO4F-200804-020732-f6d3d8 0.0361 205.990515 -7.55606788E+003 7.71177 7.89586 16 (Pma2) n - 1
REM
REM Run started: Tue, 04 Aug 2020 03:51:54 +0100 in /lustre/scratch/uccabz1/launch_tmp/launcher_2020-08-04-01-07-29-950417
REM CASTEP 20.1 from code version af48c487+ pr-geom-scf-spinfix Tue Jun 2 15:39:59 2020 +0100
REM Functional Perdew Burke Ernzerhof Relativity Koelling-Harmon Dispersion off
REM Cut-off 340.0000 eV Grid scale 1.7500 Gmax 16.5316 1/A FBSC none
REM MP grid 5 2 2 Offset 0.000 0.000 0.000 No. kpts 3 Spacing 0.07
REM Total runtime: 6014.48 s
REM Overall efficiency: 69.6667 %
REM
REM 2LiFeSO4F.cell (6abdf011d38848201efe8211ff585b1c)
REM
REM compiler GCC version 4.9.2
REM options -cpp -iprefix /lustre/shared/ucl/apps/gcc/4.9.2/bin/../lib/gcc/x86_64-unknown-linux-gnu/4.9.2/ -mtune=corei7 -march=x86-64 -g -Og
REM COMMAND_LINE
REM seed 944428443 4660767 378401106 -370240932 1133577610 1563118933 1441106949 -568342507 -1327234786 57231208 -1350605282 562750180
REM
REM S 3|1.8|5|6|7|30:31:32(qc=5)
REM O 2|1.5|12|13|15|20:21(qc=5)
REM Li 1|1.3|8|9|10|10U:20(qc=5)
REM Fe 3|2.2|2.0|1.0|8|9|10|40:41:32(qc=5)
REM F 2|1.6|10|12|13|20:21(qc=5)
REM 
CELL 1.54180    3.04170    7.42885    9.11609   90.00000   90.00000   90.00000
LATT -1
SFAC Li O  F  S  Fe 
Li     1  0.0264360000000  0.2139510000000 -0.2500000000000 1.0  -0.03
Li     1  0.0264360000000 -0.2139510000000  0.2500000000000 1.0  -0.03
O      2 -0.0934960000000  0.5992230000000  0.1106010000000 1.0   0.03
O      2  0.2645850000000  0.2693600000000  0.1245320000000 1.0   0.24
O      2 -0.0934960000000 -0.5992230000000 -0.1106010000000 1.0   0.03
O      2  0.2645850000000 -0.2693600000000 -0.1245320000000 1.0   0.24
O      2 -0.0934960000000 -0.5992230000000 -0.3893990000000 1.0   0.03
O      2  0.2645850000000 -0.2693600000000 -0.3754680000000 1.0   0.24
O      2 -0.0934960000000  0.5992230000000  0.3893990000000 1.0   0.03
O      2  0.2645850000000  0.2693600000000  0.3754680000000 1.0   0.24
F      3 -0.2022430000000  0.0000000000000  0.0000000000000 1.0   0.27
F      3 -0.2022430000000  0.0000000000000  0.5000000000000 1.0   0.27
S      4  0.1817020000000  0.5000000000000  0.0000000000000 1.0   0.03
S      4  0.1817020000000  0.5000000000000  0.5000000000000 1.0   0.03
Fe     5 -0.2473250000000 -0.2506870000000 -0.2500000000000 1.0   3.04
Fe     5 -0.2473250000000  0.2506870000000  0.2500000000000 1.0   3.04
END
