TITL 2LiFeSO4F-200804-033542-27055e 0.0001 256.675066 -7.56136934E+003 7.96071 8.11796 16 (Ama2) n - 1
REM
REM Run started: Tue, 04 Aug 2020 05:30:23 +0100 in /lustre/scratch/uccabz1/launch_tmp/launcher_2020-08-04-02-35-40-733078
REM CASTEP 20.1 from code version af48c487+ pr-geom-scf-spinfix Tue Jun 2 15:39:59 2020 +0100
REM Functional Perdew Burke Ernzerhof Relativity Koelling-Harmon Dispersion off
REM Cut-off 340.0000 eV Grid scale 1.7500 Gmax 16.5316 1/A FBSC none
REM MP grid 5 2 2 Offset 0.000 0.000 0.000 No. kpts 5 Spacing 0.07
REM Total runtime: 7574.31 s
REM Overall efficiency: 72.7692 %
REM
REM 2LiFeSO4F.cell (6abdf011d38848201efe8211ff585b1c)
REM
REM compiler GCC version 4.9.2
REM options -cpp -iprefix /lustre/shared/ucl/apps/gcc/4.9.2/bin/../lib/gcc/x86_64-unknown-linux-gnu/4.9.2/ -mtune=corei7 -march=x86-64 -g -Og
REM COMMAND_LINE
REM seed 1315242316 62267301 903533226 1367937004 -1049459937 -122146536 1716009115 1278065910 -921469526 -1583112047 -412744264 -42921472
REM
REM S 3|1.8|5|6|7|30:31:32(qc=5)
REM O 2|1.5|12|13|15|20:21(qc=5)
REM Li 1|1.3|8|9|10|10U:20(qc=5)
REM Fe 3|2.2|2.0|1.0|8|9|10|40:41:32(qc=5)
REM F 2|1.6|10|12|13|20:21(qc=5)
REM 
CELL 1.54180    2.90688   10.02050    8.90602   90.00000   90.00000   98.33999
LATT -1
SFAC Li O  F  S  Fe 
Li     1 -0.6595390000000  0.1191010000000  0.2500000000000 1.0  -0.03
Li     1  0.2213590000000 -0.1191010000000 -0.2500000000000 1.0  -0.03
O      2  0.3369390000000  0.1181770000000  0.0251430000000 1.0   0.30
O      2 -0.0503400000000  0.4087400000000 -0.1090770000000 1.0  -0.00
O      2  0.2187620000000 -0.1181770000000 -0.0251430000000 1.0   0.30
O      2 -0.4590800000000 -0.4087400000000  0.1090770000000 1.0  -0.00
O      2  0.2187620000000 -0.1181770000000  0.5251430000000 1.0   0.30
O      2 -0.4590800000000 -0.4087400000000  0.3909230000000 1.0  -0.00
O      2  0.3369390000000  0.1181770000000 -0.5251430000000 1.0   0.30
O      2 -0.0503400000000  0.4087400000000 -0.3909230000000 1.0  -0.00
F      3 -0.2189060000000  0.0021960000000  0.2500000000000 1.0   0.12
F      3 -0.2211020000000 -0.0021960000000 -0.2500000000000 1.0   0.12
S      4  0.4176230000000 -0.3468190000000  0.2500000000000 1.0  -0.00
S      4 -0.2355580000000  0.3468190000000 -0.2500000000000 1.0  -0.00
Fe     5 -0.2186630000000 -0.0000000000000  0.0000000000000 1.0   3.29
Fe     5 -0.2186630000000 -0.0000000000000 -0.5000000000000 1.0   3.29
END
