TITL 2LiFeSO4F-200804-023444-ad5db0 -0.0131 206.078634 -7.56461675E+003 8.00000 8.08950 16 (Cc) n - 1
REM
REM Run started: Tue, 04 Aug 2020 03:32:02 +0100 in /lustre/scratch/uccabz1/launch_tmp/launcher_2020-08-04-01-34-42-116690
REM CASTEP 20.1 from code version af48c487+ pr-geom-scf-spinfix Tue Jun 2 15:39:59 2020 +0100
REM Functional Perdew Burke Ernzerhof Relativity Koelling-Harmon Dispersion off
REM Cut-off 340.0000 eV Grid scale 1.7500 Gmax 16.5316 1/A FBSC none
REM MP grid 4 4 2 Offset 0.000 0.000 0.000 No. kpts 10 Spacing 0.07
REM Total runtime: 4182.4 s
REM Overall efficiency: 84.5556 %
REM
REM 2LiFeSO4F.cell (6abdf011d38848201efe8211ff585b1c)
REM
REM compiler GCC version 4.9.2
REM options -cpp -iprefix /lustre/shared/ucl/apps/gcc/4.9.2/bin/../lib/gcc/x86_64-unknown-linux-gnu/4.9.2/ -mtune=corei7 -march=x86-64 -g -Og
REM COMMAND_LINE
REM seed -2802631 700537127 -2109143336 1481606917 1040715303 -222168990 1986019183 1695411557 1061346090 973250414 -238826314 -839452082
REM
REM S 3|1.8|5|6|7|30:31:32(qc=5)
REM O 2|1.5|12|13|15|20:21(qc=5)
REM Li 1|1.3|8|9|10|10U:20(qc=5)
REM Fe 3|2.2|2.0|1.0|8|9|10|40:41:32(qc=5)
REM F 2|1.6|10|12|13|20:21(qc=5)
REM 
CELL 1.54180    5.20644    5.20644    8.37071   85.45761   85.45761  113.39182
LATT -1
SFAC Li O  F  S  Fe 
Li     1 -0.2502660000000 -0.2869690000000  0.1697490000000 1.0  -0.03
Li     1 -0.2869690000000 -0.2502660000000 -0.3302510000000 1.0  -0.03
O      2  0.0171460000000  0.3226010000000 -0.3579000000000 1.0   0.06
O      2  0.4079390000000  0.3322870000000 -0.2062120000000 1.0   0.05
O      2 -0.0287860000000  0.3553810000000 -0.0675770000000 1.0   0.04
O      2  0.3279290000000  0.7553480000000 -0.2500420000000 1.0   0.04
O      2  0.3226010000000  0.0171460000000  0.1421000000000 1.0   0.06
O      2  0.3322870000000  0.4079390000000  0.2937880000000 1.0   0.05
O      2  0.3553810000000 -0.0287860000000  0.4324230000000 1.0   0.04
O      2  0.7553480000000  0.3279290000000  0.2499580000000 1.0   0.04
F      3 -0.2939060000000 -0.2023160000000 -0.0377600000000 1.0   0.09
F      3 -0.2023160000000 -0.2939060000000 -0.5377600000000 1.0   0.09
S      4  0.1753580000000  0.4377990000000 -0.2159230000000 1.0   0.02
S      4  0.4377990000000  0.1753580000000  0.2840770000000 1.0   0.02
Fe     5  0.0619380000000 -0.4664090000000  0.4127450000000 1.0   3.74
Fe     5 -0.4664090000000  0.0619380000000 -0.0872550000000 1.0   3.74
END
