TITL 2LiFeSO4F-200804-040540-8169ff -0.0480 275.075831 -7.56447635E+003 7.99949 8.10458 16 (P2) n - 1
REM
REM Run started: Tue, 04 Aug 2020 05:44:51 +0100 in /lustre/scratch/uccabz1/launch_tmp/launcher_2020-08-04-03-05-34-087379
REM CASTEP 20.1 from code version af48c487+ pr-geom-scf-spinfix Tue Jun 2 15:39:59 2020 +0100
REM Functional Perdew Burke Ernzerhof Relativity Koelling-Harmon Dispersion off
REM Cut-off 340.0000 eV Grid scale 1.7500 Gmax 16.5316 1/A FBSC none
REM MP grid 4 2 3 Offset 0.000 0.000 0.000 No. kpts 6 Spacing 0.07
REM Total runtime: 5978.63 s
REM Overall efficiency: 71.7692 %
REM
REM 2LiFeSO4F.cell (6abdf011d38848201efe8211ff585b1c)
REM
REM compiler GCC version 4.9.2
REM options -cpp -iprefix /lustre/shared/ucl/apps/gcc/4.9.2/bin/../lib/gcc/x86_64-unknown-linux-gnu/4.9.2/ -mtune=corei7 -march=x86-64 -g -Og
REM COMMAND_LINE
REM seed -924840119 -1672731815 -481365377 -1988763055 -829555795 1548375078 1566397930 187684563 -29646639 736981776 -1884723079 1119243702
REM
REM S 3|1.8|5|6|7|30:31:32(qc=5)
REM O 2|1.5|12|13|15|20:21(qc=5)
REM Li 1|1.3|8|9|10|10U:20(qc=5)
REM Fe 3|2.2|2.0|1.0|8|9|10|40:41:32(qc=5)
REM F 2|1.6|10|12|13|20:21(qc=5)
REM 
CELL 1.54180    4.67379    9.82028    5.99462   88.75566   90.00000   90.00000
LATT -1
SFAC Li O  F  S  Fe 
Li     1 -0.3163510000000 -0.3976780000000  0.3026500000000 1.0  -0.00
Li     1 -0.3163510000000  0.3976780000000 -0.3026500000000 1.0  -0.00
O      2  0.4753900000000  0.1937830000000  0.1789680000000 1.0   0.07
O      2  0.4719610000000  0.1064300000000 -0.2072890000000 1.0   0.07
O      2  0.3416180000000  0.3428200000000 -0.1413380000000 1.0   0.02
O      2  0.0191080000000  0.1571600000000 -0.0182660000000 1.0   0.06
O      2  0.4753900000000 -0.1937830000000 -0.1789680000000 1.0   0.07
O      2  0.4719610000000 -0.1064300000000  0.2072890000000 1.0   0.07
O      2  0.3416180000000 -0.3428200000000  0.1413380000000 1.0   0.02
O      2  0.0191080000000 -0.1571600000000  0.0182660000000 1.0   0.06
F      3 -0.1678050000000  0.5000000000000  0.5000000000000 1.0   0.00
F      3 -0.0664940000000  0.0000000000000 -0.5000000000000 1.0   0.13
S      4  0.3289710000000  0.2023910000000 -0.0461840000000 1.0   0.02
S      4  0.3289710000000 -0.2023910000000  0.0461840000000 1.0   0.02
Fe     5 -0.2340260000000 -0.0423690000000 -0.2044060000000 1.0   3.69
Fe     5 -0.2340260000000  0.0423690000000  0.2044060000000 1.0   3.69
END
