TITL 2LiFeSO4F-200819-001921-7e5a00 0.0012 217.007345 -7.55962111E+003 7.99466 8.25715 16 (C2/c) n - 1
REM
REM Run started: Wed, 19 Aug 2020 02:45:57 +0100 in /scratch/scratch/uccabz1/launch_tmp/launcher_2020-08-18-23-19-18-016679
REM CASTEP 19.11| from code version Version unavailable
REM Functional Perdew Burke Ernzerhof Relativity Koelling-Harmon Dispersion off
REM Cut-off 340.0000 eV Grid scale 1.7500 Gmax 16.5316 1/A FBSC none
REM MP grid 4 3 2 Offset 0.000 0.000 0.000 No. kpts 12 Spacing 0.07
REM Total runtime: 9236.77 s
REM Overall efficiency: 93.3 %
REM
REM 2LiFeSO4F.cell (6abdf011d38848201efe8211ff585b1c)
REM
REM compiler GCC version 4.9.2
REM options -cpp -iprefix /scratch/UCL/applications/gcc/4.9.2/bin/../lib/gcc/x86_64-unknown-linux-gnu/4.9.2/ -mtune=corei7 -march=x86-64 -g -O2
REM COMMAND_LINE
REM seed -1771069907 451764261 -1335822145 -1793749723 879782587 -1034697992 -1320178698 -903153726 -117736332 -1176440400 -600185470 -1057428783
REM
REM S 3|1.8|5|6|7|30:31:32(qc=5)
REM O 2|1.5|12|13|15|20:21(qc=5)
REM Li 1|1.3|8|9|10|10U:20(qc=5)
REM Fe 3|2.2|2.0|1.0|8|9|10|40:41:32(qc=5)
REM F 2|1.6|10|12|13|20:21(qc=5)
REM 
CELL 1.54180    4.89963    6.63895    8.56632   78.38109   56.92112   68.34565
LATT -1
SFAC Li O  F  S  Fe 
Li     1  0.0000000000000  0.5000000000000 -0.0000000000000 1.0   0.01
Li     1 -0.0000000000000 -0.5000000000000  0.5000000000000 1.0   0.01
O      2  1.3030480000000 -0.1086920000000 -0.4038010000000 1.0   0.13
O      2  0.8335110000000 -0.2319830000000 -0.4025980000000 1.0   0.17
O      2 -0.6943560000000 -0.1086920000000 -0.0961990000000 1.0   0.13
O      2 -0.1015280000000 -0.2319830000000 -0.0974020000000 1.0   0.17
O      2 -1.3030480000000  0.1086920000000  0.4038010000000 1.0   0.13
O      2 -0.8335110000000  0.2319830000000  0.4025980000000 1.0   0.17
O      2  0.6943560000000  0.1086920000000  0.0961990000000 1.0   0.13
O      2  0.1015280000000  0.2319830000000  0.0974020000000 1.0   0.17
F      3 -0.6642920000000 -0.1714170000000  0.2500000000000 1.0   0.18
F      3  0.6642920000000  0.1714170000000 -0.2500000000000 1.0   0.18
S      4 -0.3661830000000  0.2323660000000  0.2500000000000 1.0   0.00
S      4  0.3661830000000 -0.2323660000000 -0.2500000000000 1.0   0.00
Fe     5  0.5000000000000  0.0000000000000 -0.0000000000000 1.0   3.19
Fe     5 -1.0000000000000  0.0000000000000  0.5000000000000 1.0   3.19
END
