TITL 2LiFeSO4F-200804-050522-603050 -0.0129 263.490493 -7.56496323E+003 8.00000 8.18949 16 (Cc) n - 1
REM
REM Run started: Tue, 04 Aug 2020 09:21:03 +0100 in /lustre/scratch/uccabz1/launch_tmp/launcher_2020-08-04-04-05-21-279653
REM CASTEP 20.1 from code version af48c487+ pr-geom-scf-spinfix Tue Jun 2 15:39:59 2020 +0100
REM Functional Perdew Burke Ernzerhof Relativity Koelling-Harmon Dispersion off
REM Cut-off 340.0000 eV Grid scale 1.7500 Gmax 16.5316 1/A FBSC none
REM MP grid 4 3 2 Offset 0.000 0.000 0.000 No. kpts 12 Spacing 0.07
REM Total runtime: 17355.1 s
REM Overall efficiency: 78.6667 %
REM
REM 2LiFeSO4F.cell (6abdf011d38848201efe8211ff585b1c)
REM
REM compiler GCC version 4.9.2
REM options -cpp -iprefix /lustre/shared/ucl/apps/gcc/4.9.2/bin/../lib/gcc/x86_64-unknown-linux-gnu/4.9.2/ -mtune=corei7 -march=x86-64 -g -Og
REM COMMAND_LINE
REM seed 490273867 1098560139 526407981 166255204 -26544818 1247410409 1831612085 1595660258 1685993738 190054636 1415556818 -1931867211
REM
REM S 3|1.8|5|6|7|30:31:32(qc=5)
REM O 2|1.5|12|13|15|20:21(qc=5)
REM Li 1|1.3|8|9|10|10U:20(qc=5)
REM Fe 3|2.2|2.0|1.0|8|9|10|40:41:32(qc=5)
REM F 2|1.6|10|12|13|20:21(qc=5)
REM 
CELL 1.54180    5.00825    7.65606    9.03589  124.12072   90.00000  109.09149
LATT -1
SFAC Li O  F  S  Fe 
Li     1  0.0106870000000 -0.1021720000000 -0.4806700000000 1.0  -0.01
Li     1 -0.1128590000000 -0.1021720000000  0.0193300000000 1.0  -0.01
O      2 -0.3835370000000 -0.1213380000000  0.1800290000000 1.0   0.01
O      2 -0.4478590000000  0.2397040000000  0.4146190000000 1.0   0.06
O      2  0.0018590000000  0.2461490000000  0.3054930000000 1.0   0.06
O      2 -0.1247440000000  0.1219060000000  0.5076570000000 1.0   0.05
O      2  0.2621990000000 -0.1213380000000 -0.3199710000000 1.0   0.01
O      2  0.6875630000000  0.2397040000000 -0.0853810000000 1.0   0.06
O      2  0.2442890000000  0.2461490000000 -0.1945070000000 1.0   0.06
O      2  0.2466500000000  0.1219060000000  0.0076570000000 1.0   0.05
F      3 -0.2772080000000 -0.3736020000000  0.3675150000000 1.0   0.12
F      3 -0.0963940000000 -0.3736020000000 -0.1324850000000 1.0   0.12
S      4 -0.2449580000000  0.1170370000000  0.3501530000000 1.0   0.02
S      4  0.3619950000000  0.1170370000000 -0.1498470000000 1.0   0.02
Fe     5 -0.0428040000000 -0.6363070000000 -0.2069900000000 1.0   3.69
Fe     5  0.4064970000000 -0.6363070000000  0.2930100000000 1.0   3.69
END
