TITL 2LiFeSO4F-200804-033725-c33c44 0.0805 286.746956 -7.56557413E+003 8.00000 8.14997 16 (Cc) n - 1
REM
REM Run started: Tue, 04 Aug 2020 06:32:25 +0100 in /lustre/scratch/uccabz1/launch_tmp/launcher_2020-08-04-02-37-23-427045
REM CASTEP 20.1 from code version af48c487+ pr-geom-scf-spinfix Tue Jun 2 15:39:59 2020 +0100
REM Functional Perdew Burke Ernzerhof Relativity Koelling-Harmon Dispersion off
REM Cut-off 340.0000 eV Grid scale 1.7500 Gmax 16.5316 1/A FBSC none
REM MP grid 3 3 3 Offset 0.000 0.000 0.000 No. kpts 10 Spacing 0.07
REM Total runtime: 11960.2 s
REM Overall efficiency: 95.8333 %
REM
REM 2LiFeSO4F.cell (6abdf011d38848201efe8211ff585b1c)
REM
REM compiler GCC version 4.9.2
REM options -cpp -iprefix /lustre/shared/ucl/apps/gcc/4.9.2/bin/../lib/gcc/x86_64-unknown-linux-gnu/4.9.2/ -mtune=corei7 -march=x86-64 -g -Og
REM COMMAND_LINE
REM seed -1533587286 1990438580 2130672539 -1957258895 -774984429 494354864 1063239243 -850158095 -1435432641 847229663 1746372083 -497386522
REM
REM S 3|1.8|5|6|7|30:31:32(qc=5)
REM O 2|1.5|12|13|15|20:21(qc=5)
REM Li 1|1.3|8|9|10|10U:20(qc=5)
REM Fe 3|2.2|2.0|1.0|8|9|10|40:41:32(qc=5)
REM F 2|1.6|10|12|13|20:21(qc=5)
REM 
CELL 1.54180    5.95653    8.51680    8.51680   51.08881   61.89936   61.89936
LATT -1
SFAC Li O  F  S  Fe 
Li     1  0.4824180000000 -0.1933320000000 -0.3294960000000 1.0  -0.01
Li     1 -0.0175820000000 -0.3294960000000 -0.1933320000000 1.0  -0.01
O      2  0.2612560000000  0.0326040000000 -0.3036820000000 1.0   0.02
O      2  0.2382920000000  0.4061470000000 -0.5401300000000 1.0   0.07
O      2  0.3379820000000  0.2127270000000 -0.1997010000000 1.0   0.07
O      2 -0.1024630000000  0.2820260000000 -0.2076880000000 1.0   0.08
O      2 -0.2387440000000 -0.3036820000000  0.0326040000000 1.0   0.02
O      2 -0.2617080000000 -0.5401300000000  0.4061470000000 1.0   0.07
O      2 -0.1620180000000 -0.1997010000000  0.2127270000000 1.0   0.07
O      2 -0.6024630000000 -0.2076880000000  0.2820260000000 1.0   0.08
F      3 -0.1591120000000 -0.2448520000000 -0.3968140000000 1.0   0.06
F      3  0.3408880000000 -0.3968140000000 -0.2448520000000 1.0   0.06
S      4  0.1880470000000  0.2303330000000 -0.3153290000000 1.0   0.02
S      4 -0.3119530000000 -0.3153290000000  0.2303330000000 1.0   0.02
Fe     5  0.0851170000000 -0.2879460000000  0.3632350000000 1.0   3.69
Fe     5 -0.4148830000000  0.3632350000000 -0.2879460000000 1.0   3.69
END
