TITL 2LiFeSO4F-200818-175041-656fb5 -0.0009 231.310457 -7.56561384E+003 8.00012 8.06126 16 (P21) n - 1
REM
REM Run started: Tue, 18 Aug 2020 19:42:18 +0100 in /scratch/scratch/uccabz1/launch_tmp/launcher_2020-08-18-16-50-38-752580
REM CASTEP 19.11| from code version Version unavailable
REM Functional Perdew Burke Ernzerhof Relativity Koelling-Harmon Dispersion off
REM Cut-off 340.0000 eV Grid scale 1.7500 Gmax 16.5316 1/A FBSC none
REM MP grid 4 3 2 Offset 0.000 0.000 0.000 No. kpts 8 Spacing 0.07
REM Total runtime: 6744.55 s
REM Overall efficiency: 84.3 %
REM
REM 2LiFeSO4F.cell (6abdf011d38848201efe8211ff585b1c)
REM
REM compiler GCC version 4.9.2
REM options -cpp -iprefix /scratch/UCL/applications/gcc/4.9.2/bin/../lib/gcc/x86_64-unknown-linux-gnu/4.9.2/ -mtune=corei7 -march=x86-64 -g -O2
REM COMMAND_LINE
REM seed 161557352 -1876557635 1421511878 1919948504 -172760532 1322250878 215288867 841241468 561632714 1941499892 1618515687 -874526626
REM
REM S 3|1.8|5|6|7|30:31:32(qc=5)
REM O 2|1.5|12|13|15|20:21(qc=5)
REM Li 1|1.3|8|9|10|10U:20(qc=5)
REM Fe 3|2.2|2.0|1.0|8|9|10|40:41:32(qc=5)
REM F 2|1.6|10|12|13|20:21(qc=5)
REM 
CELL 1.54180    4.90361    6.10927    8.16451   90.00000  108.96548   90.00000
LATT -1
SFAC Li O  F  S  Fe 
Li     1 -0.2310410000000  0.0072280000000  0.1838970000000 1.0  -0.02
Li     1  0.2310410000000  0.5072280000000 -0.1838970000000 1.0  -0.02
O      2 -0.4352470000000 -0.4083080000000 -0.2379730000000 1.0   0.01
O      2 -0.0002190000000 -0.2147230000000 -0.2424700000000 1.0   0.07
O      2 -0.2237150000000 -0.1218200000000 -0.0212710000000 1.0   0.01
O      2 -0.4567150000000 -0.0200160000000 -0.3298560000000 1.0   0.07
O      2  0.4352470000000  0.0916920000000  0.2379730000000 1.0   0.01
O      2  0.0002190000000  0.2852770000000  0.2424700000000 1.0   0.07
O      2  0.2237150000000  0.3781800000000  0.0212710000000 1.0   0.01
O      2  0.4567150000000  0.4799840000000  0.3298560000000 1.0   0.07
F      3 -0.0538490000000 -0.1850190000000  0.3867420000000 1.0   0.11
F      3  0.0538490000000  0.3149810000000 -0.3867420000000 1.0   0.11
S      4 -0.2871030000000 -0.1936620000000 -0.2020240000000 1.0   0.01
S      4  0.2871030000000  0.3063380000000  0.2020240000000 1.0   0.01
Fe     5  0.1143010000000 -0.0063720000000 -0.3970810000000 1.0   3.74
Fe     5 -0.1143010000000  0.4936280000000  0.3970810000000 1.0   3.74
END
