TITL 2LiFeSO4F-200804-043932-ff02cc 0.0558 269.307678 -7.56079153E+003 5.92924 6.32541 16 (C2) n - 1
REM
REM Run started: Tue, 04 Aug 2020 07:14:28 +0100 in /lustre/scratch/uccabz1/launch_tmp/launcher_2020-08-04-03-39-30-748923
REM CASTEP 20.1 from code version af48c487+ pr-geom-scf-spinfix Tue Jun 2 15:39:59 2020 +0100
REM Functional Perdew Burke Ernzerhof Relativity Koelling-Harmon Dispersion off
REM Cut-off 340.0000 eV Grid scale 1.7500 Gmax 16.5316 1/A FBSC none
REM MP grid 3 3 3 Offset 0.000 0.000 0.000 No. kpts 10 Spacing 0.07
REM Total runtime: 9366.98 s
REM Overall efficiency: 94.0833 %
REM
REM 2LiFeSO4F.cell (6abdf011d38848201efe8211ff585b1c)
REM
REM compiler GCC version 4.9.2
REM options -cpp -iprefix /lustre/shared/ucl/apps/gcc/4.9.2/bin/../lib/gcc/x86_64-unknown-linux-gnu/4.9.2/ -mtune=corei7 -march=x86-64 -g -Og
REM COMMAND_LINE
REM seed -382506984 -1730548295 940826558 2009029681 2035755739 -1618258932 2142099894 -684049226 -206748266 1491981335 618184134 452478451
REM
REM S 3|1.8|5|6|7|30:31:32(qc=5)
REM O 2|1.5|12|13|15|20:21(qc=5)
REM Li 1|1.3|8|9|10|10U:20(qc=5)
REM Fe 3|2.2|2.0|1.0|8|9|10|40:41:32(qc=5)
REM F 2|1.6|10|12|13|20:21(qc=5)
REM 
CELL 1.54180    5.95190    6.75683    6.75683   83.47505   86.99963   86.99963
LATT -1
SFAC Li O  F  S  Fe 
Li     1 -0.0000000000000 -0.3737160000000  0.3737160000000 1.0   0.01
Li     1 -0.0000000000000  0.0697230000000 -0.0697230000000 1.0   0.02
O      2  0.5409970000000  0.1628160000000  0.5821800000000 1.0   0.03
O      2 -0.0260920000000  0.0939540000000  0.6203230000000 1.0   0.43
O      2  0.1777840000000 -0.3439390000000  0.6021800000000 1.0   0.31
O      2  0.3535320000000 -0.3888790000000  0.2244610000000 1.0   0.02
O      2 -0.5409970000000 -0.5821800000000 -0.1628160000000 1.0   0.03
O      2  0.0260920000000 -0.6203230000000 -0.0939540000000 1.0   0.43
O      2 -0.1777840000000 -0.6021800000000  0.3439390000000 1.0   0.31
O      2 -0.3535320000000 -0.2244610000000  0.3888790000000 1.0   0.02
F      3  0.0592920000000 -0.2122460000000 -0.0462890000000 1.0   0.09
F      3 -0.0592920000000  0.0462890000000  0.2122460000000 1.0   0.09
S      4  0.5000000000000  0.1904760000000 -0.1904760000000 1.0  -0.03
S      4  0.5000000000000 -0.3972160000000  0.3972160000000 1.0   0.03
Fe     5  0.1836940000000 -0.4317810000000 -0.1572870000000 1.0   2.08
Fe     5 -0.1836940000000  0.1572870000000  0.4317810000000 1.0   2.08
END
