TITL 2LiFeSO4F-200804-024602-ea83e3 -0.0019 185.192621 -7.56087505E+003 0.442767E-04 0.608262E-02 16 (P-1) n - 1
REM
REM Run started: Tue, 04 Aug 2020 07:48:01 +0100 in /lustre/scratch/uccabz1/launch_tmp/launcher_2020-08-04-01-46-00-942053
REM CASTEP 20.1 from code version af48c487+ pr-geom-scf-spinfix Tue Jun 2 15:39:59 2020 +0100
REM Functional Perdew Burke Ernzerhof Relativity Koelling-Harmon Dispersion off
REM Cut-off 340.0000 eV Grid scale 1.7500 Gmax 16.5316 1/A FBSC none
REM MP grid 3 4 3 Offset 0.000 0.000 0.000 No. kpts 18 Spacing 0.07
REM Total runtime: 19263.1 s
REM Overall efficiency: 89.7273 %
REM
REM 2LiFeSO4F.cell (6abdf011d38848201efe8211ff585b1c)
REM
REM compiler GCC version 4.9.2
REM options -cpp -iprefix /lustre/shared/ucl/apps/gcc/4.9.2/bin/../lib/gcc/x86_64-unknown-linux-gnu/4.9.2/ -mtune=corei7 -march=x86-64 -g -Og
REM COMMAND_LINE
REM seed 518200952 853805637 -694728041 -1224196160 2145543460 -125352963 1929870429 -751709100 1383865629 714158048 -1533544043 1377925048
REM
REM S 3|1.8|5|6|7|30:31:32(qc=5)
REM O 2|1.5|12|13|15|20:21(qc=5)
REM Li 1|1.3|8|9|10|10U:20(qc=5)
REM Fe 3|2.2|2.0|1.0|8|9|10|40:41:32(qc=5)
REM F 2|1.6|10|12|13|20:21(qc=5)
REM 
CELL 1.54180    6.14993    5.34924    7.45438  107.23108   91.27106  125.29692
LATT -1
SFAC Li O  F  S  Fe 
Li     1 -0.0481060000000 -0.4811100000000 -0.2630730000000 1.0
Li     1  0.0481060000000  0.4811100000000  0.2630730000000 1.0
O      2 -0.2671960000000  0.4006850000000  0.0635590000000 1.0
O      2  0.1627080000000  0.3967020000000 -0.4539990000000 1.0
O      2 -0.2607130000000 -0.0382760000000 -0.4218570000000 1.0
O      2  0.2780430000000  0.0354650000000 -0.0917290000000 1.0
O      2  0.2671960000000 -0.4006850000000 -0.0635590000000 1.0
O      2 -0.1627080000000 -0.3967020000000  0.4539990000000 1.0
O      2  0.2607130000000  0.0382760000000  0.4218570000000 1.0
O      2 -0.2780430000000 -0.0354650000000  0.0917290000000 1.0
F      3  0.3746900000000 -0.5122970000000  0.2448790000000 1.0
F      3 -0.3746900000000  0.5122970000000 -0.2448790000000 1.0
S      4  0.0000000000000  0.0000000000000 -0.5000000000000 1.0
S      4 -0.5000000000000  0.0000000000000  0.0000000000000 1.0
Fe     5  0.5000000000000  0.5000000000000 -0.5000000000000 1.0
Fe     5  0.5000000000000 -0.5000000000000  0.0000000000000 1.0
END
