TITL 2LiFeSO4F-200818-235422-071f9c -0.0469 281.661676 -7.56044982E+003 7.99362 8.15514 16 (Aem2) n - 1
REM
REM Run started: Wed, 19 Aug 2020 01:21:48 +0100 in /lustre/scratch/uccabz1/launch_tmp/launcher_2020-08-18-22-49-19-114624
REM CASTEP 20.1 from code version af48c487+ pr-geom-scf-spinfix Tue Jun 2 15:39:59 2020 +0100
REM Functional Perdew Burke Ernzerhof Relativity Koelling-Harmon Dispersion off
REM Cut-off 340.0000 eV Grid scale 1.7500 Gmax 16.5316 1/A FBSC none
REM MP grid 5 2 2 Offset 0.000 0.000 0.000 No. kpts 6 Spacing 0.07
REM Total runtime: 5689.04 s
REM Overall efficiency: 79.5455 %
REM
REM 2LiFeSO4F.cell (6abdf011d38848201efe8211ff585b1c)
REM
REM compiler GCC version 4.9.2
REM options -cpp -iprefix /lustre/shared/ucl/apps/gcc/4.9.2/bin/../lib/gcc/x86_64-unknown-linux-gnu/4.9.2/ -mtune=corei7 -march=x86-64 -g -Og
REM COMMAND_LINE
REM seed -1748811237 210734779 457118637 773417093 -1555310995 -2081675719 790108262 -1288007192 -1886318342 1496972719 1802562510 -1721550278
REM
REM S 3|1.8|5|6|7|30:31:32(qc=5)
REM O 2|1.5|12|13|15|20:21(qc=5)
REM Li 1|1.3|8|9|10|10U:20(qc=5)
REM Fe 3|2.2|2.0|1.0|8|9|10|40:41:32(qc=5)
REM F 2|1.6|10|12|13|20:21(qc=5)
REM 
CELL 1.54180    3.32552    9.52922    9.52922   68.86369   90.00000   90.00000
LATT -1
SFAC Li O  F  S  Fe 
Li     1 -0.0260740000000  0.5115610000000  0.0115610000000 1.0   0.04
Li     1  0.0260740000000  1.0115610000000  0.5115610000000 1.0   0.04
O      2  0.4873800000000 -0.3733290000000 -0.1075320000000 1.0   0.32
O      2 -0.5154770000000 -0.1362910000000  0.1314230000000 1.0   0.00
O      2 -0.4873800000000 -0.1075320000000 -0.3733290000000 1.0   0.32
O      2  0.5154770000000  0.1314230000000 -0.1362910000000 1.0   0.00
O      2  0.4873800000000  0.3924680000000  0.1266710000000 1.0   0.32
O      2 -0.5154770000000  0.6314230000000  0.3637090000000 1.0   0.00
O      2 -0.4873800000000 -0.8733290000000 -0.6075320000000 1.0   0.32
O      2  0.5154770000000 -0.6362910000000 -0.3685770000000 1.0   0.00
F      3  0.0000000000000  0.1364000000000  0.1364000000000 1.0   0.20
F      3  0.0000000000000 -0.3636000000000 -0.3636000000000 1.0   0.20
S      4  0.3210660000000  0.7132150000000  0.2132150000000 1.0   0.00
S      4 -0.3210660000000  0.2132150000000 -0.2867850000000 1.0   0.00
Fe     5 -0.5000000000000 -0.2976230000000 -0.2976230000000 1.0   3.12
Fe     5 -0.5000000000000  0.2023770000000  0.2023770000000 1.0   3.12
END
