TITL 2LiFeSO4F-200818-193739-9fae24 -0.0145 215.599314 -7.56497329E+003 8.00000 8.11144 16 (C2) n - 1
REM
REM Run started: Tue, 18 Aug 2020 23:12:31 +0100 in /lustre/scratch/uccabz1/launch_tmp/launcher_2020-08-18-18-37-35-431416
REM CASTEP 20.1 from code version af48c487+ pr-geom-scf-spinfix Tue Jun 2 15:39:59 2020 +0100
REM Functional Perdew Burke Ernzerhof Relativity Koelling-Harmon Dispersion off
REM Cut-off 340.0000 eV Grid scale 1.7500 Gmax 16.5316 1/A FBSC none
REM MP grid 3 3 4 Offset 0.000 0.000 0.000 No. kpts 12 Spacing 0.07
REM Total runtime: 14263.3 s
REM Overall efficiency: 81.75 %
REM
REM 2LiFeSO4F.cell (6abdf011d38848201efe8211ff585b1c)
REM
REM compiler GCC version 4.9.2
REM options -cpp -iprefix /lustre/shared/ucl/apps/gcc/4.9.2/bin/../lib/gcc/x86_64-unknown-linux-gnu/4.9.2/ -mtune=corei7 -march=x86-64 -g -Og
REM COMMAND_LINE
REM seed -1081249102 1393073788 -1751887021 -785876273 734320441 2114685970 -490640185 -853110135 -1010367468 921176427 1865972104 1308472838
REM
REM S 3|1.8|5|6|7|30:31:32(qc=5)
REM O 2|1.5|12|13|15|20:21(qc=5)
REM Li 1|1.3|8|9|10|10U:20(qc=5)
REM Fe 3|2.2|2.0|1.0|8|9|10|40:41:32(qc=5)
REM F 2|1.6|10|12|13|20:21(qc=5)
REM 
CELL 1.54180    7.36464    7.36464    6.19996   58.48409   58.48409   93.95331
LATT -1
SFAC Li O  F  S  Fe 
Li     1 -0.3802260000000 -0.4092720000000  0.5421770000000 1.0  -0.02
Li     1  0.4092720000000  0.3802260000000 -0.5421770000000 1.0  -0.02
O      2 -0.2851540000000  0.3243680000000 -0.2428050000000 1.0   0.03
O      2  0.0675920000000  0.6563750000000 -0.5036730000000 1.0   0.10
O      2  0.0658200000000  0.5513600000000 -0.8261280000000 1.0   0.06
O      2  0.0930040000000  0.2894670000000 -0.4035420000000 1.0   0.02
O      2 -0.3243680000000  0.2851540000000  0.2428050000000 1.0   0.03
O      2 -0.6563750000000 -0.0675920000000  0.5036730000000 1.0   0.10
O      2 -0.5513600000000 -0.0658200000000  0.8261280000000 1.0   0.06
O      2 -0.2894670000000 -0.0930040000000  0.4035420000000 1.0   0.02
F      3  0.3270120000000  0.2986570000000 -0.1455640000000 1.0   0.08
F      3 -0.2986570000000 -0.3270120000000  0.1455640000000 1.0   0.08
S      4 -0.0152810000000  0.4446520000000 -0.4908560000000 1.0   0.01
S      4 -0.4446520000000  0.0152810000000  0.4908560000000 1.0   0.01
Fe     5  0.3576690000000  0.0168570000000  0.1190350000000 1.0   3.71
Fe     5 -0.0168570000000 -0.3576690000000 -0.1190350000000 1.0   3.71
END
