TITL 2LiFeSO4F-200818-181818-df0602 -0.0257 197.633629 -7.56612383E+003 8.00000 8.11385 16 (P-1) n - 1
REM
REM Run started: Tue, 18 Aug 2020 19:44:28 +0100 in /lustre/scratch/uccabz1/launch_tmp/launcher_2020-08-18-17-18-16-301736
REM CASTEP 20.1 from code version af48c487+ pr-geom-scf-spinfix Tue Jun 2 15:39:59 2020 +0100
REM Functional Perdew Burke Ernzerhof Relativity Koelling-Harmon Dispersion off
REM Cut-off 340.0000 eV Grid scale 1.7500 Gmax 16.5316 1/A FBSC none
REM MP grid 4 3 2 Offset 0.000 0.000 0.000 No. kpts 12 Spacing 0.07
REM Total runtime: 5491.22 s
REM Overall efficiency: 73.5 %
REM
REM 2LiFeSO4F.cell (6abdf011d38848201efe8211ff585b1c)
REM
REM compiler GCC version 4.9.2
REM options -cpp -iprefix /lustre/shared/ucl/apps/gcc/4.9.2/bin/../lib/gcc/x86_64-unknown-linux-gnu/4.9.2/ -mtune=corei7 -march=x86-64 -g -Og
REM COMMAND_LINE
REM seed -729321610 -1765895960 -1165687363 2095150991 1085530405 -27059113 1632321815 -1442442336 47424927 -1891098337 -1721181973 339711976
REM
REM S 3|1.8|5|6|7|30:31:32(qc=5)
REM O 2|1.5|12|13|15|20:21(qc=5)
REM Li 1|1.3|8|9|10|10U:20(qc=5)
REM Fe 3|2.2|2.0|1.0|8|9|10|40:41:32(qc=5)
REM F 2|1.6|10|12|13|20:21(qc=5)
REM 
CELL 1.54180    5.07510    5.03485    8.52888   79.60985   69.30316   77.32402
LATT -1
SFAC Li O  F  S  Fe 
Li     1  0.3881220000000 -0.2847840000000 -0.3663080000000 1.0  -0.01
Li     1 -0.3881220000000  0.2847840000000  0.3663080000000 1.0  -0.01
O      2  0.3486630000000  0.1300350000000  0.2480640000000 1.0   0.07
O      2  0.3489510000000 -0.3321780000000  0.4058880000000 1.0   0.01
O      2  0.3159030000000 -0.2459370000000  0.1165290000000 1.0   0.13
O      2 -0.0939350000000 -0.0768000000000  0.3538140000000 1.0   0.01
O      2 -0.3486630000000 -0.1300350000000 -0.2480640000000 1.0   0.07
O      2 -0.3489510000000  0.3321780000000 -0.4058880000000 1.0   0.01
O      2 -0.3159030000000  0.2459370000000 -0.1165290000000 1.0   0.13
O      2  0.0939350000000  0.0768000000000 -0.3538140000000 1.0   0.01
F      3  0.1509090000000 -0.4389730000000 -0.1523990000000 1.0   0.11
F      3 -0.1509090000000  0.4389730000000  0.1523990000000 1.0   0.11
S      4  0.2198940000000 -0.1326610000000  0.2918930000000 1.0   0.01
S      4 -0.2198940000000  0.1326610000000 -0.2918930000000 1.0   0.01
Fe     5  0.2905690000000  0.3918660000000  0.0433440000000 1.0   3.67
Fe     5 -0.2905690000000 -0.3918660000000 -0.0433440000000 1.0   3.67
END
