TITL 2LiFeSO4F-200818-231422-dbb687 -0.0667 251.351383 -7.56566191E+003 8.00000 8.18726 16 (P-1) n - 1
REM
REM Run started: Wed, 19 Aug 2020 04:20:45 +0100 in /lustre/scratch/uccabz1/launch_tmp/launcher_2020-08-18-22-14-20-119860
REM CASTEP 20.1 from code version af48c487+ pr-geom-scf-spinfix Tue Jun 2 15:39:59 2020 +0100
REM Functional Perdew Burke Ernzerhof Relativity Koelling-Harmon Dispersion off
REM Cut-off 340.0000 eV Grid scale 1.7500 Gmax 16.5316 1/A FBSC none
REM MP grid 3 2 4 Offset 0.000 0.000 0.000 No. kpts 12 Spacing 0.07
REM Total runtime: 20854.4 s
REM Overall efficiency: 91.5 %
REM
REM 2LiFeSO4F.cell (6abdf011d38848201efe8211ff585b1c)
REM
REM compiler GCC version 4.9.2
REM options -cpp -iprefix /lustre/shared/ucl/apps/gcc/4.9.2/bin/../lib/gcc/x86_64-unknown-linux-gnu/4.9.2/ -mtune=corei7 -march=x86-64 -g -Og
REM COMMAND_LINE
REM seed 1521532704 380551331 -1836025266 -139254067 886536885 -669024630 -1460696493 -42015070 -620128552 -143873391 -139246745 -1731780509
REM
REM S 3|1.8|5|6|7|30:31:32(qc=5)
REM O 2|1.5|12|13|15|20:21(qc=5)
REM Li 1|1.3|8|9|10|10U:20(qc=5)
REM Fe 3|2.2|2.0|1.0|8|9|10|40:41:32(qc=5)
REM F 2|1.6|10|12|13|20:21(qc=5)
REM 
CELL 1.54180    7.76928    9.94932    6.41444  131.31420  137.53381   61.73602
LATT -1
SFAC Li O  F  S  Fe 
Li     1  0.0811590000000  0.6519360000000  0.1176820000000 1.0  -0.02
Li     1 -0.0811590000000 -0.6519360000000 -0.1176820000000 1.0  -0.02
O      2  0.1881760000000  0.1626780000000 -0.0651340000000 1.0   0.05
O      2  0.4096610000000 -0.0610680000000  0.1113480000000 1.0   0.07
O      2  0.2138190000000  0.1968360000000  0.3673870000000 1.0   0.08
O      2  0.6021260000000  0.2423990000000  0.5487670000000 1.0   0.01
O      2 -0.1881760000000 -0.1626780000000  0.0651340000000 1.0   0.05
O      2 -0.4096610000000  0.0610680000000 -0.1113480000000 1.0   0.07
O      2 -0.2138190000000 -0.1968360000000 -0.3673870000000 1.0   0.08
O      2 -0.6021260000000 -0.2423990000000 -0.5487670000000 1.0   0.01
F      3  0.0694550000000 -0.5924240000000 -0.1982670000000 1.0   0.10
F      3 -0.0694550000000  0.5924240000000  0.1982670000000 1.0   0.10
S      4  0.3624680000000  0.1372760000000  0.2512120000000 1.0   0.02
S      4 -0.3624680000000 -0.1372760000000 -0.2512120000000 1.0   0.02
Fe     5  0.2813310000000  0.2053190000000 -0.2574880000000 1.0   3.69
Fe     5 -0.2813310000000 -0.2053190000000  0.2574880000000 1.0   3.69
END
