TITL 2LiFeSO4F-200818-224338-a9688a -0.0129 243.082464 -7.56473686E+003 8.00000 8.17276 16 (Cc) n - 1
REM
REM Run started: Wed, 19 Aug 2020 00:17:35 +0100 in /lustre/scratch/uccabz1/launch_tmp/launcher_2020-08-18-21-43-36-758715
REM CASTEP 20.1 from code version af48c487+ pr-geom-scf-spinfix Tue Jun 2 15:39:59 2020 +0100
REM Functional Perdew Burke Ernzerhof Relativity Koelling-Harmon Dispersion off
REM Cut-off 340.0000 eV Grid scale 1.7500 Gmax 16.5316 1/A FBSC none
REM MP grid 4 4 2 Offset 0.000 0.000 0.000 No. kpts 10 Spacing 0.07
REM Total runtime: 5772.35 s
REM Overall efficiency: 85.6364 %
REM
REM 2LiFeSO4F.cell (6abdf011d38848201efe8211ff585b1c)
REM
REM compiler GCC version 4.9.2
REM options -cpp -iprefix /lustre/shared/ucl/apps/gcc/4.9.2/bin/../lib/gcc/x86_64-unknown-linux-gnu/4.9.2/ -mtune=corei7 -march=x86-64 -g -Og
REM COMMAND_LINE
REM seed 1711587171 1133302257 -1191614229 732916841 -1023310745 1332199425 -1106664010 -1072914410 -1872831131 -146509276 779342797 -1783413428
REM
REM S 3|1.8|5|6|7|30:31:32(qc=5)
REM O 2|1.5|12|13|15|20:21(qc=5)
REM Li 1|1.3|8|9|10|10U:20(qc=5)
REM Fe 3|2.2|2.0|1.0|8|9|10|40:41:32(qc=5)
REM F 2|1.6|10|12|13|20:21(qc=5)
REM 
CELL 1.54180    5.25621    5.25621   10.69320   65.42225   65.42225   75.15828
LATT -1
SFAC Li O  F  S  Fe 
Li     1 -0.4670350000000 -0.1354990000000  0.2804210000000 1.0  -0.03
Li     1 -0.1354990000000 -0.4670350000000 -0.2195790000000 1.0  -0.03
O      2 -0.0614430000000 -0.2097390000000 -0.1611680000000 1.0   0.02
O      2  0.2461270000000 -0.1649330000000 -0.0514190000000 1.0   0.09
O      2 -0.1940050000000  0.1527900000000 -0.0467090000000 1.0   0.02
O      2  0.1945940000000  0.2082270000000 -0.2750910000000 1.0   0.09
O      2 -0.2097390000000 -0.0614430000000  0.3388320000000 1.0   0.02
O      2 -0.1649330000000  0.2461270000000  0.4485810000000 1.0   0.09
O      2  0.1527900000000 -0.1940050000000  0.4532910000000 1.0   0.02
O      2  0.2082270000000  0.1945940000000  0.2249090000000 1.0   0.09
F      3 -0.3739710000000 -0.4444300000000 -0.3089470000000 1.0   0.14
F      3 -0.4444300000000 -0.3739710000000  0.1910530000000 1.0   0.14
S      4  0.0349180000000 -0.0123820000000 -0.1287370000000 1.0   0.01
S      4 -0.0123820000000  0.0349180000000  0.3712630000000 1.0   0.01
Fe     5  0.3351160000000  0.5624770000000  0.1112810000000 1.0   3.66
Fe     5  0.5624770000000  0.3351160000000 -0.3887190000000 1.0   3.66
END
