TITL 2LiFeSO4F-200804-022741-3910f3 0.0267 245.725572 -7.56570094E+003 8.00000 8.10857 16 (Pc) n - 1
REM
REM Run started: Tue, 04 Aug 2020 04:33:34 +0100 in /lustre/scratch/uccabz1/launch_tmp/launcher_2020-08-04-01-27-34-738455
REM CASTEP 20.1 from code version af48c487+ pr-geom-scf-spinfix Tue Jun 2 15:39:59 2020 +0100
REM Functional Perdew Burke Ernzerhof Relativity Koelling-Harmon Dispersion off
REM Cut-off 340.0000 eV Grid scale 1.7500 Gmax 16.5316 1/A FBSC none
REM MP grid 3 2 3 Offset 0.000 0.000 0.000 No. kpts 6 Spacing 0.07
REM Total runtime: 8110.96 s
REM Overall efficiency: 78.6364 %
REM
REM 2LiFeSO4F.cell (6abdf011d38848201efe8211ff585b1c)
REM
REM compiler GCC version 4.9.2
REM options -cpp -iprefix /lustre/shared/ucl/apps/gcc/4.9.2/bin/../lib/gcc/x86_64-unknown-linux-gnu/4.9.2/ -mtune=corei7 -march=x86-64 -g -Og
REM COMMAND_LINE
REM seed -1489897868 -983513041 742510527 448306881 177483712 -1200296560 -975480724 -2007194469 -1065230202 -863603066 -28892614 -2096245402
REM
REM S 3|1.8|5|6|7|30:31:32(qc=5)
REM O 2|1.5|12|13|15|20:21(qc=5)
REM Li 1|1.3|8|9|10|10U:20(qc=5)
REM Fe 3|2.2|2.0|1.0|8|9|10|40:41:32(qc=5)
REM F 2|1.6|10|12|13|20:21(qc=5)
REM 
CELL 1.54180    5.27484    7.92708    6.07955   90.00000   90.00000  104.84520
LATT -1
SFAC Li O  F  S  Fe 
Li     1 -0.3856340000000 -0.1939900000000 -0.2660140000000 1.0  -0.02
Li     1  0.1143660000000  0.3060100000000  0.2660140000000 1.0  -0.02
O      2 -0.1147440000000 -0.5911830000000 -0.2495230000000 1.0   0.06
O      2  0.0355970000000 -0.4620850000000  0.1166480000000 1.0   0.05
O      2  0.2899780000000 -0.3625390000000 -0.2273490000000 1.0   0.01
O      2  0.2626620000000 -0.6515330000000 -0.0532910000000 1.0   0.06
O      2 -0.6147440000000 -0.0911830000000  0.2495230000000 1.0   0.06
O      2 -0.4644030000000  0.0379150000000 -0.1166480000000 1.0   0.05
O      2 -0.2100220000000  0.1374610000000  0.2273490000000 1.0   0.01
O      2 -0.2373380000000 -0.1515330000000  0.0532910000000 1.0   0.06
F      3  0.3261070000000  0.2747100000000  0.4814500000000 1.0   0.11
F      3 -0.1738930000000 -0.2252900000000 -0.4814500000000 1.0   0.11
S      4  0.1209230000000 -0.5116420000000 -0.1097570000000 1.0   0.02
S      4 -0.3790770000000 -0.0116420000000  0.1097570000000 1.0   0.02
Fe     5  0.5182740000000  0.2671850000000 -0.2598240000000 1.0   3.71
Fe     5  0.0182740000000 -0.2328150000000  0.2598240000000 1.0   3.71
END
