TITL 2LiFeSO4F-200818-220245-4fadd9 -0.0058 243.489832 -7.56132726E+003 3.37678 3.53068 16 (C2) n - 1
REM
REM Run started: Wed, 19 Aug 2020 06:04:32 +0100 in /lustre/scratch/uccabz1/launch_tmp/launcher_2020-08-18-21-02-42-387198
REM CASTEP 20.1 from code version af48c487+ pr-geom-scf-spinfix Tue Jun 2 15:39:59 2020 +0100
REM Functional Perdew Burke Ernzerhof Relativity Koelling-Harmon Dispersion off
REM Cut-off 340.0000 eV Grid scale 1.7500 Gmax 16.5316 1/A FBSC none
REM MP grid 6 2 2 Offset 0.000 0.000 0.000 No. kpts 12 Spacing 0.07
REM Total runtime: 29015 s
REM Overall efficiency: 76.75 %
REM
REM 2LiFeSO4F.cell (6abdf011d38848201efe8211ff585b1c)
REM
REM compiler GCC version 4.9.2
REM options -cpp -iprefix /lustre/shared/ucl/apps/gcc/4.9.2/bin/../lib/gcc/x86_64-unknown-linux-gnu/4.9.2/ -mtune=corei7 -march=x86-64 -g -Og
REM COMMAND_LINE
REM seed -913150897 -148534312 2076671174 -1934438582 144368839 -1012638614 -1415483084 1623402884 97882259 38122898 -1640044233 702320089
REM
REM S 3|1.8|5|6|7|30:31:32(qc=5)
REM O 2|1.5|12|13|15|20:21(qc=5)
REM Li 1|1.3|8|9|10|10U:20(qc=5)
REM Fe 3|2.2|2.0|1.0|8|9|10|40:41:32(qc=5)
REM F 2|1.6|10|12|13|20:21(qc=5)
REM 
CELL 1.54180    3.17148    7.72543   12.42086   83.21094   54.83601   78.15515
LATT -1
SFAC Li O  F  S  Fe 
Li     1 -0.3403030000000 -0.3193950000000  0.0000000000000 1.0   0.00
Li     1  0.3340670000000  0.3318660000000  0.5000000000000 1.0   0.02
O      2 -0.1581450000000  0.6206260000000  0.1282660000000 1.0   0.00
O      2 -0.4357670000000  0.4780640000000  0.3438710000000 1.0   0.00
O      2  0.1013820000000  0.2922780000000  0.1454490000000 1.0   0.00
O      2 -0.4624810000000  0.6206260000000 -0.1282660000000 1.0   0.00
O      2 -0.0422960000000  0.4780640000000 -0.3438710000000 1.0   0.00
O      2 -0.3936600000000  0.2922780000000 -0.1454490000000 1.0   0.00
O      2 -0.0303990000000  0.0607980000000  0.0000000000000 1.0  -0.00
O      2 -0.0931770000000  0.1863540000000 -0.5000000000000 1.0   0.40
F      3 -0.2115430000000 -0.0917630000000 -0.3375870000000 1.0   0.14
F      3  0.3033060000000 -0.0917630000000  0.3375870000000 1.0   0.14
S      4 -0.3842080000000  0.4661290000000  0.2173470000000 1.0   0.00
S      4 -0.0819210000000  0.4661290000000 -0.2173470000000 1.0   0.00
Fe     5  0.0159160000000 -0.0318320000000 -0.5000000000000 1.0   2.67
Fe     5  0.4152970000000  0.1694050000000  0.0000000000000 1.0   0.00
END
