TITL 2LiFeSO4F-200819-011539-6f29a5 -0.0515 204.210296 -7.56067594E+003 7.99795 8.25914 16 (Pmn21) n - 1
REM
REM Run started: Wed, 19 Aug 2020 02:46:41 +0100 in /scratch/scratch/uccabz1/launch_tmp/launcher_2020-08-19-00-15-37-312842
REM CASTEP 19.11| from code version Version unavailable
REM Functional Perdew Burke Ernzerhof Relativity Koelling-Harmon Dispersion off
REM Cut-off 340.0000 eV Grid scale 1.7500 Gmax 16.5316 1/A FBSC none
REM MP grid 3 4 2 Offset 0.000 0.000 0.000 No. kpts 4 Spacing 0.07
REM Total runtime: 5476.8 s
REM Overall efficiency: 78.4167 %
REM
REM 2LiFeSO4F.cell (6abdf011d38848201efe8211ff585b1c)
REM
REM compiler GCC version 4.9.2
REM options -cpp -iprefix /scratch/UCL/applications/gcc/4.9.2/bin/../lib/gcc/x86_64-unknown-linux-gnu/4.9.2/ -mtune=corei7 -march=x86-64 -g -O2
REM COMMAND_LINE
REM seed -1410536423 -1925639170 879606696 2093112801 -167124655 -1106292105 640647685 753832435 1332542424 827745489 2146189480 -1349567660
REM
REM S 3|1.8|5|6|7|30:31:32(qc=5)
REM O 2|1.5|12|13|15|20:21(qc=5)
REM Li 1|1.3|8|9|10|10U:20(qc=5)
REM Fe 3|2.2|2.0|1.0|8|9|10|40:41:32(qc=5)
REM F 2|1.6|10|12|13|20:21(qc=5)
REM 
CELL 1.54180    5.27371    4.06359    9.52909   90.00000   90.00000   90.00000
LATT -1
SFAC Li O  F  S  Fe 
Li     1  0.0000000000000  0.4311250000000 -0.4919940000000 1.0   0.00
Li     1  0.5000000000000 -0.4311250000000  0.0080060000000 1.0   0.00
O      2  0.2279740000000  0.2331810000000  0.1060630000000 1.0   0.07
O      2  0.2323730000000 -0.1911820000000 -0.0995770000000 1.0   0.31
O      2  0.2720260000000 -0.2331810000000 -0.3939370000000 1.0   0.07
O      2  0.2676270000000  0.1911820000000 -0.5995770000000 1.0   0.31
O      2 -0.2720260000000 -0.2331810000000 -0.3939370000000 1.0   0.07
O      2 -0.2676270000000  0.1911820000000 -0.5995770000000 1.0   0.31
O      2 -0.2279740000000  0.2331810000000  0.1060630000000 1.0   0.07
O      2 -0.2323730000000 -0.1911820000000 -0.0995770000000 1.0   0.31
F      3  0.5000000000000 -0.2957230000000  0.2131030000000 1.0   0.15
F      3  0.0000000000000  0.2957230000000  0.7131030000000 1.0   0.15
S      4  0.0000000000000  0.0094110000000  0.0886990000000 1.0   0.13
S      4  0.5000000000000 -0.0094110000000 -0.4113010000000 1.0   0.13
Fe     5  0.0000000000000 -0.2165000000000 -0.2207430000000 1.0   2.96
Fe     5  0.5000000000000  0.2165000000000  0.2792570000000 1.0   2.96
END
