TITL 2LiFeSO4F-200819-014744-c76811 0.0357 197.674133 -7.56197800E+003 8.00000 8.11514 16 (Pba2) n - 1
REM
REM Run started: Wed, 19 Aug 2020 02:07:18 +0100 in /lustre/scratch/uccabz1/launch_tmp/launcher_2020-08-19-00-47-42-526273
REM CASTEP 20.1 from code version af48c487+ pr-geom-scf-spinfix Tue Jun 2 15:39:59 2020 +0100
REM Functional Perdew Burke Ernzerhof Relativity Koelling-Harmon Dispersion off
REM Cut-off 340.0000 eV Grid scale 1.7500 Gmax 16.5316 1/A FBSC none
REM MP grid 3 3 3 Offset 0.000 0.000 0.000 No. kpts 8 Spacing 0.07
REM Total runtime: 1484.89 s
REM Overall efficiency: 92 %
REM
REM 2LiFeSO4F.cell (6abdf011d38848201efe8211ff585b1c)
REM
REM compiler GCC version 4.9.2
REM options -cpp -iprefix /lustre/shared/ucl/apps/gcc/4.9.2/bin/../lib/gcc/x86_64-unknown-linux-gnu/4.9.2/ -mtune=corei7 -march=x86-64 -g -Og
REM COMMAND_LINE
REM seed -1126171913 748141431 1139038523 -73130507 -199477263 -686692230 -1804727304 1028358671 -2036892793 1337806007 88346297 -1848760830
REM
REM S 3|1.8|5|6|7|30:31:32(qc=5)
REM O 2|1.5|12|13|15|20:21(qc=5)
REM Li 1|1.3|8|9|10|10U:20(qc=5)
REM Fe 3|2.2|2.0|1.0|8|9|10|40:41:32(qc=5)
REM F 2|1.6|10|12|13|20:21(qc=5)
REM 
CELL 1.54180    6.52442    5.49348    5.51519   90.00000   90.00000   90.00000
LATT -1
SFAC Li O  F  S  Fe 
Li     1 -0.0000000000000  0.0000000000000 -0.2779960000000 1.0  -0.03
Li     1  0.5000000000000 -0.5000000000000 -0.2779960000000 1.0  -0.03
O      2 -0.3881370000000 -0.1652000000000 -0.2978640000000 1.0   0.05
O      2 -0.1423430000000 -0.3674170000000 -0.6451830000000 1.0   0.06
O      2  0.3881370000000  0.1652000000000 -0.2978640000000 1.0   0.05
O      2  0.1423430000000  0.3674170000000 -0.6451830000000 1.0   0.06
O      2 -0.1118630000000  0.3348000000000 -0.2978640000000 1.0   0.05
O      2 -0.3576570000000  0.1325830000000 -0.6451830000000 1.0   0.06
O      2  0.1118630000000 -0.3348000000000 -0.2978640000000 1.0   0.05
O      2  0.3576570000000 -0.1325830000000 -0.6451830000000 1.0   0.06
F      3 -0.0000000000000  0.0000000000000  0.0347170000000 1.0   0.05
F      3  0.5000000000000 -0.5000000000000  0.0347170000000 1.0   0.05
S      4 -0.5000000000000  0.0000000000000 -0.4778080000000 1.0   0.00
S      4 -0.0000000000000 -0.5000000000000 -0.4778080000000 1.0   0.00
Fe     5 -0.0000000000000 -0.5000000000000  0.0339560000000 1.0   3.74
Fe     5  0.5000000000000  0.0000000000000  0.0339560000000 1.0   3.74
END
