TITL 2LiFeSO4F-200819-025429-36d0d1 -0.0228 223.844471 -7.55949987E+003 5.95611 7.59232 16 (P-1) n - 1
REM
REM Run started: Wed, 19 Aug 2020 07:45:17 +0100 in /lustre/scratch/uccabz1/launch_tmp/launcher_2020-08-19-01-54-18-919357
REM CASTEP 20.1 from code version af48c487+ pr-geom-scf-spinfix Tue Jun 2 15:39:59 2020 +0100
REM Functional Perdew Burke Ernzerhof Relativity Koelling-Harmon Dispersion off
REM Cut-off 340.0000 eV Grid scale 1.7500 Gmax 16.5316 1/A FBSC none
REM MP grid 4 4 2 Offset 0.000 0.000 0.000 No. kpts 16 Spacing 0.07
REM Total runtime: 18312.2 s
REM Overall efficiency: 96.5 %
REM
REM 2LiFeSO4F.cell (6abdf011d38848201efe8211ff585b1c)
REM
REM compiler GCC version 4.9.2
REM options -cpp -iprefix /lustre/shared/ucl/apps/gcc/4.9.2/bin/../lib/gcc/x86_64-unknown-linux-gnu/4.9.2/ -mtune=corei7 -march=x86-64 -g -Og
REM COMMAND_LINE
REM seed 509872903 -554599585 -59705737 -1441722659 -286441848 94410253 328299636 1903789781 1108427259 -1959023250 1671021336 -730928881
REM
REM S 3|1.8|5|6|7|30:31:32(qc=5)
REM O 2|1.5|12|13|15|20:21(qc=5)
REM Li 1|1.3|8|9|10|10U:20(qc=5)
REM Fe 3|2.2|2.0|1.0|8|9|10|40:41:32(qc=5)
REM F 2|1.6|10|12|13|20:21(qc=5)
REM 
CELL 1.54180    5.13774    5.08533   12.69407   51.47222   72.03449   59.62961
LATT -1
SFAC Li O  F  S  Fe 
Li     1 -0.3265880000000 -0.3264260000000 -0.0059390000000 1.0  -0.00
Li     1  0.3265880000000  0.3264260000000  0.0059390000000 1.0  -0.00
O      2 -0.7320680000000  0.3025670000000  0.3742930000000 1.0  -0.01
O      2 -0.2687440000000  0.1150550000000  0.0999680000000 1.0   0.06
O      2 -0.0026340000000 -0.4158850000000  0.0984710000000 1.0   0.21
O      2  0.2585320000000 -0.1630910000000  0.1081370000000 1.0   0.09
O      2  0.7320680000000 -0.3025670000000 -0.3742930000000 1.0  -0.01
O      2  0.2687440000000 -0.1150550000000 -0.0999680000000 1.0   0.06
O      2  0.0026340000000  0.4158850000000 -0.0984710000000 1.0   0.21
O      2 -0.2585320000000  0.1630910000000 -0.1081370000000 1.0   0.09
F      3 -0.3156970000000 -0.3930180000000  0.3578880000000 1.0   0.13
F      3  0.3156970000000  0.3930180000000 -0.3578880000000 1.0   0.13
S      4  0.0000000000000  0.0000000000000  0.0000000000000 1.0  -0.00
S      4 -0.5000000000000 -1.0000000000000  0.5000000000000 1.0  -0.68
Fe     5  0.0086830000000  0.3332950000000 -0.2450610000000 1.0   2.84
Fe     5 -0.0086830000000 -0.3332950000000  0.2450610000000 1.0   2.84
END
