TITL 2LiFeSO4F-200804-054327-c054b9 -0.0030 205.991574 -7.56289557E+003 9.92752 9.96274 16 (C2) n - 1
REM
REM Run started: Tue, 04 Aug 2020 06:51:24 +0100 in /lustre/scratch/uccabz1/launch_tmp/launcher_2020-08-04-04-43-25-609333
REM CASTEP 20.1 from code version af48c487+ pr-geom-scf-spinfix Tue Jun 2 15:39:59 2020 +0100
REM Functional Perdew Burke Ernzerhof Relativity Koelling-Harmon Dispersion off
REM Cut-off 340.0000 eV Grid scale 1.7500 Gmax 16.5316 1/A FBSC none
REM MP grid 3 3 3 Offset 0.000 0.000 0.000 No. kpts 10 Spacing 0.07
REM Total runtime: 4350.74 s
REM Overall efficiency: 93.75 %
REM
REM 2LiFeSO4F.cell (6abdf011d38848201efe8211ff585b1c)
REM
REM compiler GCC version 4.9.2
REM options -cpp -iprefix /lustre/shared/ucl/apps/gcc/4.9.2/bin/../lib/gcc/x86_64-unknown-linux-gnu/4.9.2/ -mtune=corei7 -march=x86-64 -g -Og
REM COMMAND_LINE
REM seed -2091767456 -1702979551 1429977632 -1483894573 -1954355809 -1186757845 -797498957 -565588200 2146560727 1373806442 906524008 -1353442711
REM
REM S 3|1.8|5|6|7|30:31:32(qc=5)
REM O 2|1.5|12|13|15|20:21(qc=5)
REM Li 1|1.3|8|9|10|10U:20(qc=5)
REM Fe 3|2.2|2.0|1.0|8|9|10|40:41:32(qc=5)
REM F 2|1.6|10|12|13|20:21(qc=5)
REM 
CELL 1.54180    7.58702    5.62476    5.62476   92.80650  110.66001  110.66001
LATT -1
SFAC Li O  F  S  Fe 
Li     1 -0.5000000000000  0.2223820000000 -0.2223820000000 1.0  -0.00
Li     1  0.0000000000000  0.6973050000000  0.3026950000000 1.0  -0.02
O      2  0.3280280000000  0.3864080000000  0.0067010000000 1.0   0.13
O      2  0.5994350000000  0.2422930000000  0.1724520000000 1.0   0.09
O      2  0.2497630000000 -0.0491730000000  0.1288440000000 1.0   0.10
O      2 -0.3280280000000 -0.0067010000000 -0.3864080000000 1.0   0.13
O      2 -0.5994350000000 -0.1724520000000 -0.2422930000000 1.0   0.09
O      2 -0.2497630000000 -0.1288440000000  0.0491730000000 1.0   0.10
O      2 -0.5000000000000 -0.5389350000000 -0.4610650000000 1.0   0.03
O      2  0.0000000000000 -0.5428690000000 -0.4571310000000 1.0   0.72
F      3 -0.0202860000000  0.4747690000000  0.0340810000000 1.0   0.18
F      3 -0.9797140000000 -0.0340810000000 -0.4747690000000 1.0   0.18
S      4  0.4061730000000  0.2352350000000  0.2118410000000 1.0   0.05
S      4 -0.4061730000000 -0.2118410000000 -0.2352350000000 1.0   0.05
Fe     5  0.1738140000000 -0.3942040000000 -0.1160450000000 1.0   4.04
Fe     5 -0.1738140000000  0.1160450000000  0.3942040000000 1.0   4.04
END
