TITL 2LiFeSO4F-200819-003644-f50dba 0.0137 224.770412 -7.56531694E+003 8.00000 8.13914 16 (P-1) n - 1
REM
REM Run started: Wed, 19 Aug 2020 02:23:33 +0100 in /lustre/scratch/uccabz1/launch_tmp/launcher_2020-08-18-23-36-40-639413
REM CASTEP 20.1 from code version af48c487+ pr-geom-scf-spinfix Tue Jun 2 15:39:59 2020 +0100
REM Functional Perdew Burke Ernzerhof Relativity Koelling-Harmon Dispersion off
REM Cut-off 340.0000 eV Grid scale 1.7500 Gmax 16.5316 1/A FBSC none
REM MP grid 4 3 2 Offset 0.000 0.000 0.000 No. kpts 12 Spacing 0.07
REM Total runtime: 6586.53 s
REM Overall efficiency: 72.3333 %
REM
REM 2LiFeSO4F.cell (6abdf011d38848201efe8211ff585b1c)
REM
REM compiler GCC version 4.9.2
REM options -cpp -iprefix /lustre/shared/ucl/apps/gcc/4.9.2/bin/../lib/gcc/x86_64-unknown-linux-gnu/4.9.2/ -mtune=corei7 -march=x86-64 -g -Og
REM COMMAND_LINE
REM seed -682702179 -2061563012 1625004702 1515115613 -2011868472 99746043 1172397350 1046082781 402801505 196358133 -1303424695 -246574509
REM
REM S 3|1.8|5|6|7|30:31:32(qc=5)
REM O 2|1.5|12|13|15|20:21(qc=5)
REM Li 1|1.3|8|9|10|10U:20(qc=5)
REM Fe 3|2.2|2.0|1.0|8|9|10|40:41:32(qc=5)
REM F 2|1.6|10|12|13|20:21(qc=5)
REM 
CELL 1.54180    4.75751    6.12420    8.02952   92.40178  104.18195   82.31538
LATT -1
SFAC Li O  F  S  Fe 
Li     1  0.5000000000000  0.5000000000000 -0.5000000000000 1.0  -0.01
Li     1  0.0000000000000  0.0000000000000  0.5000000000000 1.0  -0.02
O      2  0.1243930000000  0.2342840000000  0.0772780000000 1.0   0.07
O      2 -0.1964650000000  0.0757660000000  0.2287140000000 1.0   0.07
O      2 -0.2275160000000  0.4774860000000  0.2043670000000 1.0   0.07
O      2  0.2085540000000  0.2637640000000  0.3906070000000 1.0   0.02
O      2 -0.1243930000000 -0.2342840000000 -0.0772780000000 1.0   0.07
O      2  0.1964650000000 -0.0757660000000 -0.2287140000000 1.0   0.07
O      2  0.2275160000000 -0.4774860000000 -0.2043670000000 1.0   0.07
O      2 -0.2085540000000 -0.2637640000000 -0.3906070000000 1.0   0.02
F      3 -0.2161640000000  0.2553560000000 -0.3924890000000 1.0   0.10
F      3  0.2161640000000 -0.2553560000000  0.3924890000000 1.0   0.10
S      4 -0.0190150000000  0.2648720000000  0.2273760000000 1.0   0.01
S      4  0.0190150000000 -0.2648720000000 -0.2273760000000 1.0   0.01
Fe     5 -0.0551280000000 -0.2437410000000  0.1710400000000 1.0   3.67
Fe     5  0.0551280000000  0.2437410000000 -0.1710400000000 1.0   3.67
END
