TITL 2LiFeSO4F-200818-223322-cc0af2 0.0514 267.749044 -7.56537536E+003 8.00000 8.13710 16 (Cm) n - 1
REM
REM Run started: Wed, 19 Aug 2020 02:08:17 +0100 in /scratch/scratch/uccabz1/launch_tmp/launcher_2020-08-18-21-33-20-197456
REM CASTEP 19.11| from code version Version unavailable
REM Functional Perdew Burke Ernzerhof Relativity Koelling-Harmon Dispersion off
REM Cut-off 340.0000 eV Grid scale 1.7500 Gmax 16.5316 1/A FBSC none
REM MP grid 4 3 2 Offset 0.000 0.000 0.000 No. kpts 10 Spacing 0.07
REM Total runtime: 12947.5 s
REM Overall efficiency: 94.3333 %
REM
REM 2LiFeSO4F.cell (6abdf011d38848201efe8211ff585b1c)
REM
REM compiler GCC version 4.9.2
REM options -cpp -iprefix /scratch/UCL/applications/gcc/4.9.2/bin/../lib/gcc/x86_64-unknown-linux-gnu/4.9.2/ -mtune=corei7 -march=x86-64 -g -O2
REM COMMAND_LINE
REM seed -1690810361 1087585062 -1916093135 -1300701122 1085811006 -939572677 835554902 -1524647070 1493933966 1172777108 -261098676 867051961
REM
REM S 3|1.8|5|6|7|30:31:32(qc=5)
REM O 2|1.5|12|13|15|20:21(qc=5)
REM Li 1|1.3|8|9|10|10U:20(qc=5)
REM Fe 3|2.2|2.0|1.0|8|9|10|40:41:32(qc=5)
REM F 2|1.6|10|12|13|20:21(qc=5)
REM 
CELL 1.54180    4.58839    7.14805    9.16321   67.04297   95.65695  104.63868
LATT -1
SFAC Li O  F  S  Fe 
Li     1  0.1702720000000 -0.3028020000000  0.3288090000000 1.0  -0.02
Li     1  0.1702720000000  0.0260070000000 -0.3288090000000 1.0  -0.02
O      2 -0.0814270000000  0.1442510000000 -0.2429740000000 1.0   0.01
O      2 -0.3486430000000  0.4009880000000 -0.2413990000000 1.0   0.07
O      2 -0.4586210000000  0.2582780000000 -0.4486670000000 1.0   0.05
O      2  0.0346190000000  0.5021850000000 -0.4456040000000 1.0   0.05
O      2 -0.0814270000000 -0.0987230000000  0.2429740000000 1.0   0.01
O      2 -0.3486430000000  0.1595890000000  0.2413990000000 1.0   0.07
O      2 -0.4586210000000 -0.1903890000000  0.4486680000000 1.0   0.05
O      2  0.0346190000000  0.0565810000000  0.4456040000000 1.0   0.05
F      3  0.2665500000000 -0.4674950000000  0.2413710000000 1.0   0.13
F      3  0.2665500000000 -0.2261250000000 -0.2413710000000 1.0   0.13
S      4 -0.2090510000000  0.3225220000000 -0.3436350000000 1.0   0.01
S      4 -0.2090510000000 -0.0211130000000  0.3436350000000 1.0   0.01
Fe     5 -0.5844720000000 -0.3872620000000  0.6807600000000 1.0   3.71
Fe     5 -0.5844720000000  0.2934980000000 -0.6807600000000 1.0   3.71
END
