TITL 2LiFeSO4F-200804-051309-65a587 -0.0265 240.356584 -7.56448823E+003 8.00000 8.18176 16 (Cm) n - 1
REM
REM Run started: Tue, 04 Aug 2020 09:36:13 +0100 in /lustre/scratch/uccabz1/launch_tmp/launcher_2020-08-04-04-13-03-586907
REM CASTEP 20.1 from code version af48c487+ pr-geom-scf-spinfix Tue Jun 2 15:39:59 2020 +0100
REM Functional Perdew Burke Ernzerhof Relativity Koelling-Harmon Dispersion off
REM Cut-off 340.0000 eV Grid scale 1.7500 Gmax 16.5316 1/A FBSC none
REM MP grid 3 3 3 Offset 0.000 0.000 0.000 No. kpts 10 Spacing 0.07
REM Total runtime: 15834.2 s
REM Overall efficiency: 92.1111 %
REM
REM 2LiFeSO4F.cell (6abdf011d38848201efe8211ff585b1c)
REM
REM compiler GCC version 4.9.2
REM options -cpp -iprefix /lustre/shared/ucl/apps/gcc/4.9.2/bin/../lib/gcc/x86_64-unknown-linux-gnu/4.9.2/ -mtune=corei7 -march=x86-64 -g -Og
REM COMMAND_LINE
REM seed 2110961943 1936867281 1788222403 877523760 -481381978 -1594436248 1600785000 1194169185 -547544469 -735806397 959385029 -596360063
REM
REM S 3|1.8|5|6|7|30:31:32(qc=5)
REM O 2|1.5|12|13|15|20:21(qc=5)
REM Li 1|1.3|8|9|10|10U:20(qc=5)
REM Fe 3|2.2|2.0|1.0|8|9|10|40:41:32(qc=5)
REM F 2|1.6|10|12|13|20:21(qc=5)
REM 
CELL 1.54180    5.82310    6.46118    6.46118   95.88784   94.21050   94.21050
LATT -1
SFAC Li O  F  S  Fe 
Li     1  0.2989130000000 -0.3541760000000  0.0460770000000 1.0  -0.02
Li     1  0.2989130000000  0.0460770000000 -0.3541760000000 1.0  -0.02
O      2 -0.3482360000000  0.1656300000000 -0.5335460000000 1.0   0.07
O      2  0.0023270000000  0.1219210000000 -0.3004390000000 1.0   0.01
O      2 -0.3841750000000  0.1219690000000 -0.1695040000000 1.0   0.06
O      2 -0.1862440000000  0.4475800000000 -0.2666840000000 1.0   0.06
O      2 -0.3482360000000 -0.5335460000000  0.1656300000000 1.0   0.07
O      2  0.0023270000000 -0.3004390000000  0.1219210000000 1.0   0.01
O      2 -0.3841750000000 -0.1695040000000  0.1219690000000 1.0   0.06
O      2 -0.1862440000000 -0.2666840000000  0.4475800000000 1.0   0.06
F      3  0.3521380000000  0.5154650000000 -0.2005050000000 1.0   0.12
F      3  0.3521380000000 -0.2005050000000  0.5154650000000 1.0   0.12
S      4 -0.2194300000000  0.2160690000000 -0.3186160000000 1.0   0.02
S      4 -0.2194300000000 -0.3186160000000  0.2160690000000 1.0   0.02
Fe     5  0.5766390000000 -0.3571490000000 -0.3571490000000 1.0   3.76
Fe     5  0.6317170000000  0.1520520000000  0.1520520000000 1.0   3.61
END
