TITL 2LiFeSO4F-200818-215549-77221e -0.0003 220.782544 -7.56552978E+003 7.99981 8.06550 16 (P-1) n - 1
REM
REM Run started: Wed, 19 Aug 2020 00:56:55 +0100 in /lustre/scratch/uccabz1/launch_tmp/launcher_2020-08-18-20-55-47-343351
REM CASTEP 20.1 from code version af48c487+ pr-geom-scf-spinfix Tue Jun 2 15:39:59 2020 +0100
REM Functional Perdew Burke Ernzerhof Relativity Koelling-Harmon Dispersion off
REM Cut-off 340.0000 eV Grid scale 1.7500 Gmax 16.5316 1/A FBSC none
REM MP grid 4 3 3 Offset 0.000 0.000 0.000 No. kpts 18 Spacing 0.07
REM Total runtime: 10949.3 s
REM Overall efficiency: 89.8 %
REM
REM 2LiFeSO4F.cell (6abdf011d38848201efe8211ff585b1c)
REM
REM compiler GCC version 4.9.2
REM options -cpp -iprefix /lustre/shared/ucl/apps/gcc/4.9.2/bin/../lib/gcc/x86_64-unknown-linux-gnu/4.9.2/ -mtune=corei7 -march=x86-64 -g -Og
REM COMMAND_LINE
REM seed 734158665 873048112 -1203369443 -430538796 1078885024 -1824920089 -247302762 -649404422 122100719 1291813847 1562148140 -1407597431
REM
REM S 3|1.8|5|6|7|30:31:32(qc=5)
REM O 2|1.5|12|13|15|20:21(qc=5)
REM Li 1|1.3|8|9|10|10U:20(qc=5)
REM Fe 3|2.2|2.0|1.0|8|9|10|40:41:32(qc=5)
REM F 2|1.6|10|12|13|20:21(qc=5)
REM 
CELL 1.54180    4.85657    6.94609    8.35110   64.06442  107.66673   77.65796
LATT -1
SFAC Li O  F  S  Fe 
Li     1 -0.4768960000000  0.5508130000000  0.2885020000000 1.0  -0.02
Li     1  0.4768960000000 -0.5508130000000 -0.2885020000000 1.0  -0.02
O      2  0.1967760000000 -0.3318850000000  0.4382910000000 1.0   0.01
O      2 -0.2570550000000 -0.2506290000000  0.1501610000000 1.0   0.04
O      2 -0.0667780000000  0.0562150000000  0.1304710000000 1.0   0.06
O      2 -0.3459720000000 -0.0673510000000  0.3324790000000 1.0   0.06
O      2 -0.1967760000000  0.3318850000000 -0.4382910000000 1.0   0.01
O      2  0.2570550000000  0.2506290000000 -0.1501610000000 1.0   0.04
O      2  0.0667780000000 -0.0562150000000 -0.1304710000000 1.0   0.06
O      2  0.3459720000000  0.0673510000000 -0.3324790000000 1.0   0.06
F      3  0.2803830000000  0.4683730000000  0.1339140000000 1.0   0.10
F      3 -0.2803830000000 -0.4683730000000 -0.1339140000000 1.0   0.10
S      4 -0.1125210000000 -0.1504680000000  0.2677030000000 1.0   0.01
S      4  0.1125210000000  0.1504680000000 -0.2677030000000 1.0   0.01
Fe     5 -0.2215230000000 -0.2162920000000 -0.1088640000000 1.0   3.73
Fe     5  0.2215230000000  0.2162920000000  0.1088640000000 1.0   3.73
END
