TITL 2LiFeSO4F-200804-051447-7038b3 -0.0683 208.145557 -7.55944166E+003 8.00000 8.09739 16 (Pcc2) n - 1
REM
REM Run started: Tue, 04 Aug 2020 05:43:40 +0100 in /lustre/scratch/uccabz1/launch_tmp/launcher_2020-08-04-04-14-45-017372
REM CASTEP 20.1 from code version af48c487+ pr-geom-scf-spinfix Tue Jun 2 15:39:59 2020 +0100
REM Functional Perdew Burke Ernzerhof Relativity Koelling-Harmon Dispersion off
REM Cut-off 340.0000 eV Grid scale 1.7500 Gmax 16.5316 1/A FBSC none
REM MP grid 4 4 2 Offset 0.000 0.000 0.000 No. kpts 4 Spacing 0.07
REM Total runtime: 2568.89 s
REM Overall efficiency: 75 %
REM
REM 2LiFeSO4F.cell (6abdf011d38848201efe8211ff585b1c)
REM
REM compiler GCC version 4.9.2
REM options -cpp -iprefix /lustre/shared/ucl/apps/gcc/4.9.2/bin/../lib/gcc/x86_64-unknown-linux-gnu/4.9.2/ -mtune=corei7 -march=x86-64 -g -Og
REM COMMAND_LINE
REM seed -242179538 344276284 -438470902 903562039 -149930304 1419148454 340246119 954797581 -1426314618 891101360 204196645 -1978060918
REM
REM S 3|1.8|5|6|7|30:31:32(qc=5)
REM O 2|1.5|12|13|15|20:21(qc=5)
REM Li 1|1.3|8|9|10|10U:20(qc=5)
REM Fe 3|2.2|2.0|1.0|8|9|10|40:41:32(qc=5)
REM F 2|1.6|10|12|13|20:21(qc=5)
REM 
CELL 1.54180    3.59663    4.34264   13.32654   90.00000   90.00000   90.00000
LATT -1
SFAC Li O  F  S  Fe 
Li     1  0.0000000000000 -0.5000000000000 -0.2150470000000 1.0  -0.02
Li     1  0.0000000000000 -0.5000000000000  0.2849530000000 1.0  -0.02
O      2  0.2820050000000  0.7918890000000 -0.2846070000000 1.0   0.02
O      2  0.2758790000000  0.2025750000000 -0.4223430000000 1.0   0.13
O      2 -0.2820050000000 -0.7918890000000 -0.2846070000000 1.0   0.02
O      2 -0.2758790000000 -0.2025750000000 -0.4223430000000 1.0   0.13
O      2  0.2820050000000 -0.7918890000000  0.2153930000000 1.0   0.02
O      2  0.2758790000000 -0.2025750000000  0.0776570000000 1.0   0.13
O      2 -0.2820050000000  0.7918890000000  0.2153930000000 1.0   0.02
O      2 -0.2758790000000  0.2025750000000  0.0776570000000 1.0   0.13
F      3 -0.5000000000000  0.5000000000000 -0.1066840000000 1.0   0.01
F      3 -0.5000000000000  0.5000000000000  0.3933160000000 1.0   0.01
S      4  0.5000000000000  0.0000000000000  0.1510900000000 1.0  -0.00
S      4  0.5000000000000  0.0000000000000 -0.3489100000000 1.0  -0.00
Fe     5  0.0000000000000  0.0000000000000 -0.0295320000000 1.0   3.71
Fe     5  0.0000000000000  0.0000000000000  0.4704680000000 1.0   3.71
END
