TITL 2LiFeSO4F-200818-221743-175d50 0.0708 214.417309 -7.56456742E+003 8.00000 8.12353 16 (C2/c) n - 1
REM
REM Run started: Tue, 18 Aug 2020 23:32:28 +0100 in /scratch/scratch/uccabz1/launch_tmp/launcher_2020-08-18-21-17-39-397995
REM CASTEP 19.11| from code version Version unavailable
REM Functional Perdew Burke Ernzerhof Relativity Koelling-Harmon Dispersion off
REM Cut-off 340.0000 eV Grid scale 1.7500 Gmax 16.5316 1/A FBSC none
REM MP grid 3 3 3 Offset 0.000 0.000 0.000 No. kpts 10 Spacing 0.07
REM Total runtime: 4713.05 s
REM Overall efficiency: 86.3333 %
REM
REM 2LiFeSO4F.cell (6abdf011d38848201efe8211ff585b1c)
REM
REM compiler GCC version 4.9.2
REM options -cpp -iprefix /scratch/UCL/applications/gcc/4.9.2/bin/../lib/gcc/x86_64-unknown-linux-gnu/4.9.2/ -mtune=corei7 -march=x86-64 -g -O2
REM COMMAND_LINE
REM seed 2140189140 1493970934 1062046406 -240215734 -346157146 1185711607 785934576 -1664044453 -1891675825 1642358587 -1376677905 -1365755568
REM
REM S 3|1.8|5|6|7|30:31:32(qc=5)
REM O 2|1.5|12|13|15|20:21(qc=5)
REM Li 1|1.3|8|9|10|10U:20(qc=5)
REM Fe 3|2.2|2.0|1.0|8|9|10|40:41:32(qc=5)
REM F 2|1.6|10|12|13|20:21(qc=5)
REM 
CELL 1.54180    5.68681    5.68681    7.69940  106.83983  106.83983  103.21369
LATT -1
SFAC Li O  F  S  Fe 
Li     1 -0.5000000000000 -0.5000000000000 -0.0000000000000 1.0  -0.02
Li     1 -1.0000000000000  0.0000000000000 -0.5000000000000 1.0  -0.02
O      2 -0.2650390000000  0.1665220000000 -0.1477740000000 1.0   0.03
O      2 -0.6808050000000  0.1421330000000 -0.1028110000000 1.0   0.03
O      2 -0.6665220000000 -0.2349610000000 -0.3522260000000 1.0   0.03
O      2 -0.6421330000000  0.1808050000000 -0.3971890000000 1.0   0.03
O      2  0.2650390000000 -0.1665220000000  0.1477740000000 1.0   0.03
O      2  0.6808050000000 -0.1421330000000  0.1028110000000 1.0   0.03
O      2  0.6665220000000  0.2349610000000  0.3522260000000 1.0   0.03
O      2  0.6421330000000 -0.1808050000000  0.3971890000000 1.0   0.03
F      3 -0.1837830000000 -0.3162170000000 -0.2500000000000 1.0   0.13
F      3  0.1837830000000  0.3162170000000  0.2500000000000 1.0   0.13
S      4 -0.5556040000000  0.0556040000000 -0.2500000000000 1.0   0.02
S      4  0.5556040000000 -0.0556040000000  0.2500000000000 1.0   0.02
Fe     5  0.0000000000000  0.0000000000000 -0.0000000000000 1.0   3.75
Fe     5  0.5000000000000 -0.5000000000000  0.5000000000000 1.0   3.75
END
