TITL 2LiFeSO4F-200819-012859-28991b -0.0238 234.589594 -7.56578420E+003 8.00000 8.09894 16 (P-1) n - 1
REM
REM Run started: Wed, 19 Aug 2020 07:06:58 +0100 in /lustre/scratch/uccabz1/launch_tmp/launcher_2020-08-19-00-28-56-661887
REM CASTEP 20.1 from code version af48c487+ pr-geom-scf-spinfix Tue Jun 2 15:39:59 2020 +0100
REM Functional Perdew Burke Ernzerhof Relativity Koelling-Harmon Dispersion off
REM Cut-off 340.0000 eV Grid scale 1.7500 Gmax 16.5316 1/A FBSC none
REM MP grid 3 4 3 Offset 0.000 0.000 0.000 No. kpts 18 Spacing 0.07
REM Total runtime: 21735.7 s
REM Overall efficiency: 90.7692 %
REM
REM 2LiFeSO4F.cell (6abdf011d38848201efe8211ff585b1c)
REM
REM compiler GCC version 4.9.2
REM options -cpp -iprefix /lustre/shared/ucl/apps/gcc/4.9.2/bin/../lib/gcc/x86_64-unknown-linux-gnu/4.9.2/ -mtune=corei7 -march=x86-64 -g -Og
REM COMMAND_LINE
REM seed -400141736 -153328278 -762829879 1452355568 -1140505889 1087604437 -938180636 -294758838 1572976151 1431048100 -653268741 934386994
REM
REM S 3|1.8|5|6|7|30:31:32(qc=5)
REM O 2|1.5|12|13|15|20:21(qc=5)
REM Li 1|1.3|8|9|10|10U:20(qc=5)
REM Fe 3|2.2|2.0|1.0|8|9|10|40:41:32(qc=5)
REM F 2|1.6|10|12|13|20:21(qc=5)
REM 
CELL 1.54180    5.11178    6.84631   10.72723  141.29502   89.48360   91.70331
LATT -1
SFAC Li O  F  S  Fe 
Li     1  0.2915750000000 -0.3844390000000 -0.2702780000000 1.0  -0.02
Li     1 -0.2915750000000  0.3844390000000  0.2702780000000 1.0  -0.02
O      2 -0.3184140000000 -0.0619190000000  0.1205640000000 1.0   0.04
O      2  0.0835440000000 -0.3057780000000 -0.0713250000000 1.0   0.04
O      2 -0.3119260000000 -0.3449280000000 -0.2207020000000 1.0   0.03
O      2 -0.3039970000000 -0.6366970000000 -0.1702180000000 1.0   0.03
O      2  0.3184140000000  0.0619190000000 -0.1205640000000 1.0   0.04
O      2 -0.0835440000000  0.3057780000000  0.0713250000000 1.0   0.04
O      2  0.3119260000000  0.3449280000000  0.2207020000000 1.0   0.03
O      2  0.3039970000000  0.6366970000000  0.1702180000000 1.0   0.03
F      3  0.2275610000000 -0.6994810000000 -0.5293550000000 1.0   0.13
F      3 -0.2275610000000  0.6994810000000  0.5293550000000 1.0   0.13
S      4 -0.2154650000000 -0.3451340000000 -0.0889750000000 1.0   0.02
S      4  0.2154650000000  0.3451340000000  0.0889750000000 1.0   0.02
Fe     5  0.2852030000000 -0.0208320000000  0.1987550000000 1.0   3.73
Fe     5 -0.2852030000000  0.0208320000000 -0.1987550000000 1.0   3.73
END
