TITL 2LiFeSO4F-200804-031119-d86c95 -0.0575 189.220682 -7.55747410E+003 4.00063 6.15971 16 (Pba2) n - 1
REM
REM Run started: Tue, 04 Aug 2020 03:42:07 +0100 in /lustre/scratch/uccabz1/launch_tmp/launcher_2020-08-04-02-11-16-685521
REM CASTEP 20.1 from code version af48c487+ pr-geom-scf-spinfix Tue Jun 2 15:39:59 2020 +0100
REM Functional Perdew Burke Ernzerhof Relativity Koelling-Harmon Dispersion off
REM Cut-off 340.0000 eV Grid scale 1.7500 Gmax 16.5316 1/A FBSC none
REM MP grid 3 3 3 Offset 0.000 0.000 0.000 No. kpts 8 Spacing 0.07
REM Total runtime: 2060.86 s
REM Overall efficiency: 91.8333 %
REM
REM 2LiFeSO4F.cell (6abdf011d38848201efe8211ff585b1c)
REM
REM compiler GCC version 4.9.2
REM options -cpp -iprefix /lustre/shared/ucl/apps/gcc/4.9.2/bin/../lib/gcc/x86_64-unknown-linux-gnu/4.9.2/ -mtune=corei7 -march=x86-64 -g -Og
REM COMMAND_LINE
REM seed -479958378 -936799463 -160570198 -205046612 1506570308 1189308477 -2106553469 297305183 -349051039 -587837082 1431486539 -2106674597
REM
REM S 3|1.8|5|6|7|30:31:32(qc=5)
REM O 2|1.5|12|13|15|20:21(qc=5)
REM Li 1|1.3|8|9|10|10U:20(qc=5)
REM Fe 3|2.2|2.0|1.0|8|9|10|40:41:32(qc=5)
REM F 2|1.6|10|12|13|20:21(qc=5)
REM 
CELL 1.54180    5.71041    6.18953    5.35358   90.00000   90.00000   90.00000
LATT -1
SFAC Li O  F  S  Fe 
Li     1  0.5000000000000  0.0000000000000 -0.1299570000000 1.0  -0.03
Li     1 -0.0000000000000 -0.5000000000000 -0.1299570000000 1.0  -0.03
O      2  0.1285260000000 -0.1417380000000 -0.1152890000000 1.0  -0.06
O      2  0.1198880000000 -0.1451060000000 -0.5618370000000 1.0  -0.03
O      2 -0.1285260000000  0.1417380000000 -0.1152890000000 1.0  -0.06
O      2 -0.1198880000000  0.1451060000000 -0.5618370000000 1.0  -0.03
O      2 -0.3714740000000 -0.3582620000000 -0.1152890000000 1.0  -0.06
O      2 -0.3801120000000 -0.3548940000000 -0.5618370000000 1.0  -0.03
O      2  0.3714740000000  0.3582620000000 -0.1152890000000 1.0  -0.06
O      2  0.3801120000000  0.3548940000000 -0.5618370000000 1.0  -0.03
F      3  0.5000000000000  0.0000000000000  0.1861890000000 1.0   0.07
F      3 -0.0000000000000 -0.5000000000000  0.1861890000000 1.0   0.07
S      4 -0.0000000000000  0.0000000000000 -0.3449470000000 1.0  -0.30
S      4  0.5000000000000 -0.5000000000000 -0.3449470000000 1.0  -0.30
Fe     5 -0.0000000000000  0.0000000000000  0.1644100000000 1.0   2.45
Fe     5  0.5000000000000 -0.5000000000000  0.1644100000000 1.0   2.45
END
