TITL 2LiFeSO4F-200818-201805-d5265a -0.0334 221.531597 -7.56606790E+003 8.00000 8.12235 16 (P-1) n - 1
REM
REM Run started: Tue, 18 Aug 2020 23:26:54 +0100 in /lustre/scratch/uccabz1/launch_tmp/launcher_2020-08-18-19-18-03-118196
REM CASTEP 20.1 from code version af48c487+ pr-geom-scf-spinfix Tue Jun 2 15:39:59 2020 +0100
REM Functional Perdew Burke Ernzerhof Relativity Koelling-Harmon Dispersion off
REM Cut-off 340.0000 eV Grid scale 1.7500 Gmax 16.5316 1/A FBSC none
REM MP grid 3 4 2 Offset 0.000 0.000 0.000 No. kpts 12 Spacing 0.07
REM Total runtime: 12769.2 s
REM Overall efficiency: 86.0833 %
REM
REM 2LiFeSO4F.cell (6abdf011d38848201efe8211ff585b1c)
REM
REM compiler GCC version 4.9.2
REM options -cpp -iprefix /lustre/shared/ucl/apps/gcc/4.9.2/bin/../lib/gcc/x86_64-unknown-linux-gnu/4.9.2/ -mtune=corei7 -march=x86-64 -g -Og
REM COMMAND_LINE
REM seed 1379774205 67812144 -1939378990 -106442656 385334812 -2037739429 -501229403 1427361477 22557396 -360304823 -894577656 2046440044
REM
REM S 3|1.8|5|6|7|30:31:32(qc=5)
REM O 2|1.5|12|13|15|20:21(qc=5)
REM Li 1|1.3|8|9|10|10U:20(qc=5)
REM Fe 3|2.2|2.0|1.0|8|9|10|40:41:32(qc=5)
REM F 2|1.6|10|12|13|20:21(qc=5)
REM 
CELL 1.54180    5.19247    5.90788    9.98483   47.04446   82.19419   81.70305
LATT -1
SFAC Li O  F  S  Fe 
Li     1  0.2437080000000  0.1191470000000  0.4726970000000 1.0  -0.02
Li     1 -0.2437080000000 -0.1191470000000 -0.4726970000000 1.0  -0.02
O      2 -0.1201290000000 -0.2074700000000 -0.0373380000000 1.0   0.07
O      2 -0.0504180000000  0.3444940000000 -0.2955070000000 1.0   0.06
O      2 -0.4652210000000  0.1473330000000 -0.2605100000000 1.0   0.07
O      2 -0.0659400000000 -0.0081570000000 -0.3483170000000 1.0   0.02
O      2  0.1201290000000  0.2074700000000  0.0373380000000 1.0   0.07
O      2  0.0504180000000 -0.3444940000000  0.2955070000000 1.0   0.06
O      2  0.4652210000000 -0.1473330000000  0.2605100000000 1.0   0.07
O      2  0.0659400000000  0.0081570000000  0.3483170000000 1.0   0.02
F      3  0.4393240000000 -0.2735650000000 -0.3435770000000 1.0   0.10
F      3 -0.4393240000000  0.2735650000000  0.3435770000000 1.0   0.10
S      4 -0.1757080000000  0.0687880000000 -0.2363780000000 1.0   0.02
S      4  0.1757080000000 -0.0687880000000  0.2363780000000 1.0   0.02
Fe     5  0.2651670000000  0.3536210000000 -0.2001790000000 1.0   3.68
Fe     5 -0.2651670000000 -0.3536210000000  0.2001790000000 1.0   3.68
END
