TITL 2LiFeSO4F-200819-022528-441b86 -0.0144 228.925474 -7.55927929E+003 6.00679 6.24482 16 (Pmn21) n - 1
REM
REM Run started: Wed, 19 Aug 2020 03:19:12 +0100 in /lustre/scratch/uccabz1/launch_tmp/launcher_2020-08-19-01-25-26-143795
REM CASTEP 20.1 from code version af48c487+ pr-geom-scf-spinfix Tue Jun 2 15:39:59 2020 +0100
REM Functional Perdew Burke Ernzerhof Relativity Koelling-Harmon Dispersion off
REM Cut-off 340.0000 eV Grid scale 1.7500 Gmax 16.5316 1/A FBSC none
REM MP grid 4 3 2 Offset 0.000 0.000 0.000 No. kpts 4 Spacing 0.07
REM Total runtime: 3519.09 s
REM Overall efficiency: 72.9 %
REM
REM 2LiFeSO4F.cell (6abdf011d38848201efe8211ff585b1c)
REM
REM compiler GCC version 4.9.2
REM options -cpp -iprefix /lustre/shared/ucl/apps/gcc/4.9.2/bin/../lib/gcc/x86_64-unknown-linux-gnu/4.9.2/ -mtune=corei7 -march=x86-64 -g -Og
REM COMMAND_LINE
REM seed 41835072 -1114093917 913591348 1376117206 636298759 -1591818828 -18132145 -1265989215 208662557 -1926846572 -1883059685 -1792944256
REM
REM S 3|1.8|5|6|7|30:31:32(qc=5)
REM O 2|1.5|12|13|15|20:21(qc=5)
REM Li 1|1.3|8|9|10|10U:20(qc=5)
REM Fe 3|2.2|2.0|1.0|8|9|10|40:41:32(qc=5)
REM F 2|1.6|10|12|13|20:21(qc=5)
REM 
CELL 1.54180    3.94655    5.15523   11.25196   90.00000   90.00000   90.00000
LATT -1
SFAC Li O  F  S  Fe 
Li     1 -0.4622450000000  0.0000000000000  0.3772870000000 1.0   0.00
Li     1  0.4622450000000 -0.5000000000000 -0.1227130000000 1.0   0.00
O      2 -0.1280180000000 -0.2525910000000  0.1428140000000 1.0   0.00
O      2  0.1773180000000 -0.2527900000000  0.4026920000000 1.0   0.28
O      2  0.1280180000000 -0.2474090000000 -0.3571860000000 1.0   0.00
O      2 -0.1773180000000 -0.2472100000000 -0.0973080000000 1.0   0.28
O      2  0.1280180000000  0.2474090000000 -0.3571860000000 1.0   0.00
O      2 -0.1773180000000  0.2472100000000 -0.0973080000000 1.0   0.28
O      2 -0.1280180000000  0.2525910000000  0.1428140000000 1.0   0.00
O      2  0.1773180000000  0.2527900000000  0.4026920000000 1.0   0.28
F      3  0.3250190000000 -0.5000000000000  0.0446810000000 1.0  -0.00
F      3 -0.3250190000000  0.0000000000000  0.5446810000000 1.0  -0.00
S      4 -0.0656110000000  0.0000000000000 -0.3313560000000 1.0   0.00
S      4  0.0656110000000  0.5000000000000  0.1686440000000 1.0   0.00
Fe     5  0.8481670000000  0.0000000000000 -0.0040410000000 1.0   2.44
Fe     5 -0.8481670000000 -0.5000000000000 -0.5040410000000 1.0   2.44
END
