TITL 2LiFeSO4F-200818-224854-2fb7ef -0.0149 199.473894 -7.56442442E+003 8.00000 8.11725 16 (P2221) n - 1
REM
REM Run started: Tue, 18 Aug 2020 23:51:26 +0100 in /scratch/scratch/uccabz1/launch_tmp/launcher_2020-08-18-21-48-52-151315
REM CASTEP 19.11| from code version Version unavailable
REM Functional Perdew Burke Ernzerhof Relativity Koelling-Harmon Dispersion off
REM Cut-off 340.0000 eV Grid scale 1.7500 Gmax 16.5316 1/A FBSC none
REM MP grid 4 3 2 Offset 0.000 0.000 0.000 No. kpts 4 Spacing 0.07
REM Total runtime: 3780.45 s
REM Overall efficiency: 76.2 %
REM
REM 2LiFeSO4F.cell (6abdf011d38848201efe8211ff585b1c)
REM
REM compiler GCC version 4.9.2
REM options -cpp -iprefix /scratch/UCL/applications/gcc/4.9.2/bin/../lib/gcc/x86_64-unknown-linux-gnu/4.9.2/ -mtune=corei7 -march=x86-64 -g -O2
REM COMMAND_LINE
REM seed 647692736 -1105331303 -605823826 -56071673 -1173659140 1382533641 -1111580937 497114278 -1393372115 -1543693586 958306426 186849550
REM
REM S 3|1.8|5|6|7|30:31:32(qc=5)
REM O 2|1.5|12|13|15|20:21(qc=5)
REM Li 1|1.3|8|9|10|10U:20(qc=5)
REM Fe 3|2.2|2.0|1.0|8|9|10|40:41:32(qc=5)
REM F 2|1.6|10|12|13|20:21(qc=5)
REM 
CELL 1.54180    3.82007    5.78090    9.03275   90.00000   90.00000   90.00000
LATT -1
SFAC Li O  F  S  Fe 
Li     1  0.0000000000000  0.1410440000000  0.2500000000000 1.0  -0.03
Li     1  0.0000000000000 -0.1410440000000 -0.2500000000000 1.0  -0.03
O      2 -0.6944880000000 -0.1909460000000 -0.0708410000000 1.0   0.01
O      2 -0.2675310000000 -0.1078950000000  0.1219900000000 1.0   0.07
O      2  0.6944880000000  0.1909460000000 -0.5708410000000 1.0   0.01
O      2  0.2675310000000  0.1078950000000 -0.3780100000000 1.0   0.07
O      2  0.6944880000000 -0.1909460000000  0.5708410000000 1.0   0.01
O      2  0.2675310000000 -0.1078950000000  0.3780100000000 1.0   0.07
O      2 -0.6944880000000  0.1909460000000  0.0708410000000 1.0   0.01
O      2 -0.2675310000000  0.1078950000000 -0.1219900000000 1.0   0.07
F      3  0.0000000000000  0.4937620000000 -0.2500000000000 1.0   0.09
F      3  0.0000000000000 -0.4937620000000  0.2500000000000 1.0   0.09
S      4  0.5058460000000  0.0000000000000  0.0000000000000 1.0   0.01
S      4 -0.5058460000000  0.0000000000000 -0.5000000000000 1.0   0.01
Fe     5  0.5000000000000 -0.3589400000000  0.2500000000000 1.0   3.77
Fe     5 -0.5000000000000  0.3589400000000 -0.2500000000000 1.0   3.77
END
