TITL 2LiFeSO4F-200804-032527-119e7d 0.0024 202.701770 -7.56550406E+003 8.00000 8.08820 16 (C2) n - 1
REM
REM Run started: Tue, 04 Aug 2020 05:00:31 +0100 in /lustre/scratch/uccabz1/launch_tmp/launcher_2020-08-04-02-25-21-977055
REM CASTEP 20.1 from code version af48c487+ pr-geom-scf-spinfix Tue Jun 2 15:39:59 2020 +0100
REM Functional Perdew Burke Ernzerhof Relativity Koelling-Harmon Dispersion off
REM Cut-off 340.0000 eV Grid scale 1.7500 Gmax 16.5316 1/A FBSC none
REM MP grid 3 3 2 Offset 0.000 0.000 0.000 No. kpts 6 Spacing 0.07
REM Total runtime: 5838.38 s
REM Overall efficiency: 83.8 %
REM
REM 2LiFeSO4F.cell (6abdf011d38848201efe8211ff585b1c)
REM
REM compiler GCC version 4.9.2
REM options -cpp -iprefix /lustre/shared/ucl/apps/gcc/4.9.2/bin/../lib/gcc/x86_64-unknown-linux-gnu/4.9.2/ -mtune=corei7 -march=x86-64 -g -Og
REM COMMAND_LINE
REM seed -124458334 -2014771306 -1118292336 -1980059872 624719822 -1047196417 959477918 -1570398628 -2041082680 -631493846 1350893475 -853233881
REM
REM S 3|1.8|5|6|7|30:31:32(qc=5)
REM O 2|1.5|12|13|15|20:21(qc=5)
REM Li 1|1.3|8|9|10|10U:20(qc=5)
REM Fe 3|2.2|2.0|1.0|8|9|10|40:41:32(qc=5)
REM F 2|1.6|10|12|13|20:21(qc=5)
REM 
CELL 1.54180    4.98383    4.98383    8.28670   83.11767   83.11767   91.50538
LATT -1
SFAC Li O  F  S  Fe 
Li     1 -0.4079250000000 -0.1681850000000  0.0318160000000 1.0  -0.01
Li     1  0.1681850000000  0.4079250000000 -0.0318160000000 1.0  -0.01
O      2  0.4595520000000 -0.1200770000000 -0.2035710000000 1.0   0.04
O      2  0.0246910000000  0.0274390000000 -0.2927030000000 1.0   0.05
O      2  0.4495990000000  0.0835720000000 -0.4839880000000 1.0   0.06
O      2  0.3706290000000  0.3659450000000 -0.2582240000000 1.0   0.03
O      2  0.1200770000000 -0.4595520000000  0.2035710000000 1.0   0.04
O      2 -0.0274390000000 -0.0246910000000  0.2927030000000 1.0   0.05
O      2 -0.0835720000000 -0.4495990000000  0.4839880000000 1.0   0.06
O      2 -0.3659450000000 -0.3706290000000  0.2582240000000 1.0   0.03
F      3 -0.5722960000000  0.1572160000000  0.0795410000000 1.0   0.09
F      3 -0.1572160000000  0.5722960000000 -0.0795410000000 1.0   0.09
S      4  0.3219270000000  0.0915160000000 -0.3087470000000 1.0   0.01
S      4 -0.0915160000000 -0.3219270000000  0.3087470000000 1.0   0.01
Fe     5 -0.2214170000000 -0.3345530000000 -0.3050730000000 1.0   3.72
Fe     5  0.3345530000000  0.2214170000000  0.3050730000000 1.0   3.72
END
