TITL 2LiFeSO4F-200818-175015-b69440 -0.0514 271.920815 -7.56605594E+003 8.00000 8.12169 16 (P-1) n - 1
REM
REM Run started: Tue, 18 Aug 2020 21:44:39 +0100 in /lustre/scratch/uccabz1/launch_tmp/launcher_2020-08-18-16-50-10-943436
REM CASTEP 20.1 from code version af48c487+ pr-geom-scf-spinfix Tue Jun 2 15:39:59 2020 +0100
REM Functional Perdew Burke Ernzerhof Relativity Koelling-Harmon Dispersion off
REM Cut-off 340.0000 eV Grid scale 1.7500 Gmax 16.5316 1/A FBSC none
REM MP grid 4 3 2 Offset 0.000 0.000 0.000 No. kpts 12 Spacing 0.07
REM Total runtime: 14417.6 s
REM Overall efficiency: 73.1818 %
REM
REM 2LiFeSO4F.cell (6abdf011d38848201efe8211ff585b1c)
REM
REM compiler GCC version 4.9.2
REM options -cpp -iprefix /lustre/shared/ucl/apps/gcc/4.9.2/bin/../lib/gcc/x86_64-unknown-linux-gnu/4.9.2/ -mtune=corei7 -march=x86-64 -g -Og
REM COMMAND_LINE
REM seed -768945955 -502434357 1252393759 -1403357233 -238511324 -1842026523 1106024450 -38304641 1193816058 -260668773 1631205349 1685957475
REM
REM S 3|1.8|5|6|7|30:31:32(qc=5)
REM O 2|1.5|12|13|15|20:21(qc=5)
REM Li 1|1.3|8|9|10|10U:20(qc=5)
REM Fe 3|2.2|2.0|1.0|8|9|10|40:41:32(qc=5)
REM F 2|1.6|10|12|13|20:21(qc=5)
REM 
CELL 1.54180    5.00410    7.68961    9.70960  122.98160  119.80564   73.65006
LATT -1
SFAC Li O  F  S  Fe 
Li     1 -0.1096340000000  0.3381930000000 -0.0073270000000 1.0  -0.01
Li     1  0.1096340000000 -0.3381930000000  0.0073270000000 1.0  -0.01
O      2 -0.6993900000000  0.4610290000000  0.0998220000000 1.0   0.02
O      2 -0.3488720000000  0.6611730000000  0.4200210000000 1.0   0.07
O      2 -0.1473080000000  0.3741940000000  0.2052060000000 1.0   0.06
O      2 -0.4570740000000  0.2974810000000  0.2968900000000 1.0   0.05
O      2  0.6993900000000 -0.4610290000000 -0.0998220000000 1.0   0.02
O      2  0.3488720000000 -0.6611730000000 -0.4200210000000 1.0   0.07
O      2  0.1473080000000 -0.3741940000000 -0.2052060000000 1.0   0.06
O      2  0.4570740000000 -0.2974810000000 -0.2968900000000 1.0   0.05
F      3  0.1204770000000 -0.0673190000000  0.1612640000000 1.0   0.13
F      3 -0.1204770000000  0.0673190000000 -0.1612640000000 1.0   0.13
S      4 -0.4192570000000  0.4482900000000  0.2548450000000 1.0   0.02
S      4  0.4192570000000 -0.4482900000000 -0.2548450000000 1.0   0.02
Fe     5 -0.2213890000000 -0.2106560000000 -0.3177430000000 1.0   3.68
Fe     5  0.2213890000000  0.2106560000000  0.3177430000000 1.0   3.68
END
