TITL 2LiFeSO4F-200818-231443-84276e 0.0647 228.892449 -7.56515905E+003 7.99980 8.10449 16 (C2) n - 1
REM
REM Run started: Wed, 19 Aug 2020 03:11:31 +0100 in /lustre/scratch/uccabz1/launch_tmp/launcher_2020-08-18-22-14-41-092416
REM CASTEP 20.1 from code version af48c487+ pr-geom-scf-spinfix Tue Jun 2 15:39:59 2020 +0100
REM Functional Perdew Burke Ernzerhof Relativity Koelling-Harmon Dispersion off
REM Cut-off 340.0000 eV Grid scale 1.7500 Gmax 16.5316 1/A FBSC none
REM MP grid 4 3 3 Offset 0.000 0.000 0.000 No. kpts 18 Spacing 0.07
REM Total runtime: 14264.6 s
REM Overall efficiency: 92.9167 %
REM
REM 2LiFeSO4F.cell (6abdf011d38848201efe8211ff585b1c)
REM
REM compiler GCC version 4.9.2
REM options -cpp -iprefix /lustre/shared/ucl/apps/gcc/4.9.2/bin/../lib/gcc/x86_64-unknown-linux-gnu/4.9.2/ -mtune=corei7 -march=x86-64 -g -Og
REM COMMAND_LINE
REM seed 1045358244 527324463 -63928713 1283679867 -278059380 -731848403 -1894017802 -650967801 -1867036338 2002112272 1474600344 1121374455
REM
REM S 3|1.8|5|6|7|30:31:32(qc=5)
REM O 2|1.5|12|13|15|20:21(qc=5)
REM Li 1|1.3|8|9|10|10U:20(qc=5)
REM Fe 3|2.2|2.0|1.0|8|9|10|40:41:32(qc=5)
REM F 2|1.6|10|12|13|20:21(qc=5)
REM 
CELL 1.54180    4.84108    7.45919    6.88219  102.44072   90.00000  108.93557
LATT -1
SFAC Li O  F  S  Fe 
Li     1  0.4946280000000 -0.3469850000000 -0.5063550000000 1.0  -0.01
Li     1 -0.1583870000000  0.3469850000000  0.5063550000000 1.0  -0.01
O      2  0.2215830000000  0.0580420000000  0.2271850000000 1.0   0.05
O      2  0.2394620000000  0.3849850000000  0.4043430000000 1.0   0.02
O      2 -0.1553740000000  0.1982380000000  0.1556160000000 1.0   0.06
O      2  0.3532570000000  0.3251740000000  0.0504190000000 1.0   0.05
O      2  0.1635410000000 -0.0580420000000 -0.2271850000000 1.0   0.05
O      2 -0.1455220000000 -0.3849850000000 -0.4043430000000 1.0   0.02
O      2 -0.3536120000000 -0.1982380000000 -0.1556160000000 1.0   0.06
O      2  0.0280840000000 -0.3251740000000 -0.0504190000000 1.0   0.05
F      3 -0.2528010000000  0.1948240000000 -0.3242500000000 1.0   0.12
F      3 -0.4476250000000 -0.1948240000000  0.3242500000000 1.0   0.12
S      4  0.1706650000000  0.2416630000000  0.2070380000000 1.0   0.02
S      4 -0.0709980000000 -0.2416630000000 -0.2070380000000 1.0   0.02
Fe     5  0.4240250000000 -0.1393060000000  0.0948080000000 1.0   3.69
Fe     5 -0.4366690000000  0.1393060000000 -0.0948080000000 1.0   3.69
END
