TITL 2LiFeSO4F-200818-231656-895644 0.0103 219.537911 -7.56556239E+003 8.00000 8.09521 16 (Pc) n - 1
REM
REM Run started: Wed, 19 Aug 2020 00:15:18 +0100 in /scratch/scratch/uccabz1/launch_tmp/launcher_2020-08-18-22-16-54-498308
REM CASTEP 19.11| from code version Version unavailable
REM Functional Perdew Burke Ernzerhof Relativity Koelling-Harmon Dispersion off
REM Cut-off 340.0000 eV Grid scale 1.7500 Gmax 16.5316 1/A FBSC none
REM MP grid 3 3 2 Offset 0.000 0.000 0.000 No. kpts 6 Spacing 0.07
REM Total runtime: 3752.04 s
REM Overall efficiency: 86.75 %
REM
REM 2LiFeSO4F.cell (6abdf011d38848201efe8211ff585b1c)
REM
REM compiler GCC version 4.9.2
REM options -cpp -iprefix /scratch/UCL/applications/gcc/4.9.2/bin/../lib/gcc/x86_64-unknown-linux-gnu/4.9.2/ -mtune=corei7 -march=x86-64 -g -O2
REM COMMAND_LINE
REM seed 2113713284 1066266013 1568610575 524512276 -75141878 537820288 486293843 1089863502 -1735624791 1085395802 -655793784 -650203157
REM
REM S 3|1.8|5|6|7|30:31:32(qc=5)
REM O 2|1.5|12|13|15|20:21(qc=5)
REM Li 1|1.3|8|9|10|10U:20(qc=5)
REM Fe 3|2.2|2.0|1.0|8|9|10|40:41:32(qc=5)
REM F 2|1.6|10|12|13|20:21(qc=5)
REM 
CELL 1.54180    5.54199    5.37707    7.59031   90.00000  103.92832   90.00000
LATT -1
SFAC Li O  F  S  Fe 
Li     1  0.0504850000000 -0.4158940000000 -0.5729270000000 1.0  -0.03
Li     1 -0.4495150000000  0.4158940000000 -0.0729270000000 1.0  -0.03
O      2  0.0509910000000  0.0844780000000 -0.1431440000000 1.0   0.06
O      2  0.1262650000000 -0.1395620000000 -0.4082940000000 1.0   0.00
O      2  0.3604820000000  0.2439200000000 -0.3008720000000 1.0   0.05
O      2 -0.0797260000000  0.2765230000000 -0.4452140000000 1.0   0.05
O      2 -0.4490090000000 -0.0844780000000  0.3568560000000 1.0   0.06
O      2 -0.3737350000000  0.1395620000000  0.0917060000000 1.0   0.00
O      2 -0.1395180000000 -0.2439200000000  0.1991280000000 1.0   0.05
O      2 -0.5797260000000 -0.2765230000000  0.0547860000000 1.0   0.05
F      3  0.2811810000000  0.4146360000000  0.3372940000000 1.0   0.12
F      3 -0.2188190000000 -0.4146360000000 -0.1627060000000 1.0   0.12
S      4  0.1138890000000  0.1053350000000 -0.3243870000000 1.0   0.01
S      4 -0.3861110000000 -0.1053350000000  0.1756130000000 1.0   0.01
Fe     5  0.0515770000000 -0.2520590000000 -0.0073400000000 1.0   3.74
Fe     5 -0.4484230000000  0.2520590000000 -0.5073400000000 1.0   3.74
END
