TITL 2LiFeSO4F-200804-045957-86abc5 0.0861 259.299507 -7.56563832E+003 8.00000 8.09625 16 (Cc) n - 1
REM
REM Run started: Tue, 04 Aug 2020 07:20:24 +0100 in /lustre/scratch/uccabz1/launch_tmp/launcher_2020-08-04-03-59-55-421395
REM CASTEP 20.1 from code version af48c487+ pr-geom-scf-spinfix Tue Jun 2 15:39:59 2020 +0100
REM Functional Perdew Burke Ernzerhof Relativity Koelling-Harmon Dispersion off
REM Cut-off 340.0000 eV Grid scale 1.7500 Gmax 16.5316 1/A FBSC none
REM MP grid 4 4 2 Offset 0.000 0.000 0.000 No. kpts 10 Spacing 0.07
REM Total runtime: 8470.26 s
REM Overall efficiency: 92.6667 %
REM
REM 2LiFeSO4F.cell (6abdf011d38848201efe8211ff585b1c)
REM
REM compiler GCC version 4.9.2
REM options -cpp -iprefix /lustre/shared/ucl/apps/gcc/4.9.2/bin/../lib/gcc/x86_64-unknown-linux-gnu/4.9.2/ -mtune=corei7 -march=x86-64 -g -Og
REM COMMAND_LINE
REM seed -1795742519 -78640101 -1088468612 -125651093 -125737003 -904251178 -545019988 203646149 -968445643 598304384 4104266 1770449931
REM
REM S 3|1.8|5|6|7|30:31:32(qc=5)
REM O 2|1.5|12|13|15|20:21(qc=5)
REM Li 1|1.3|8|9|10|10U:20(qc=5)
REM Fe 3|2.2|2.0|1.0|8|9|10|40:41:32(qc=5)
REM F 2|1.6|10|12|13|20:21(qc=5)
REM 
CELL 1.54180    4.88464    4.88464   12.10606   89.81711   89.81711  116.13958
LATT -1
SFAC Li O  F  S  Fe 
Li     1  0.7073570000000 -0.0709650000000 -0.4614030000000 1.0  -0.02
Li     1 -0.0709650000000  0.7073570000000  0.0385970000000 1.0  -0.02
O      2  0.1308020000000  0.0319820000000 -0.0835830000000 1.0   0.05
O      2  0.1916330000000  0.4807200000000 -0.1912430000000 1.0   0.07
O      2  0.6204790000000  0.4955540000000 -0.0837470000000 1.0   0.04
O      2  0.1780100000000  0.4886950000000  0.0147410000000 1.0   0.02
O      2  0.0319820000000  0.1308020000000  0.4164170000000 1.0   0.05
O      2  0.4807200000000  0.1916330000000  0.3087570000000 1.0   0.07
O      2  0.4955540000000  0.6204790000000  0.4162530000000 1.0   0.04
O      2  0.4886950000000  0.1780100000000  0.5147410000000 1.0   0.02
F      3 -0.1905430000000 -0.1535010000000 -0.3273240000000 1.0   0.12
F      3 -0.1535010000000 -0.1905430000000  0.1726760000000 1.0   0.12
S      4  0.2774030000000  0.3766980000000 -0.0832800000000 1.0   0.02
S      4  0.3766980000000  0.2774030000000  0.4167200000000 1.0   0.02
Fe     5 -0.2952010000000 -0.0494420000000  0.2912340000000 1.0   3.70
Fe     5 -0.0494420000000 -0.2952010000000 -0.2087660000000 1.0   3.70
END
