TITL 2LiFeSO4F-200819-025124-5b6e6f -0.0141 257.860685 -7.56561522E+003 8.00000 8.09971 16 (P21) n - 1
REM
REM Run started: Wed, 19 Aug 2020 05:09:25 +0100 in /scratch/scratch/uccabz1/launch_tmp/launcher_2020-08-19-01-51-21-814998
REM CASTEP 19.11| from code version Version unavailable
REM Functional Perdew Burke Ernzerhof Relativity Koelling-Harmon Dispersion off
REM Cut-off 340.0000 eV Grid scale 1.7500 Gmax 16.5316 1/A FBSC none
REM MP grid 4 4 2 Offset 0.000 0.000 0.000 No. kpts 8 Spacing 0.07
REM Total runtime: 8348.74 s
REM Overall efficiency: 94.3636 %
REM
REM 2LiFeSO4F.cell (6abdf011d38848201efe8211ff585b1c)
REM
REM compiler GCC version 4.9.2
REM options -cpp -iprefix /scratch/UCL/applications/gcc/4.9.2/bin/../lib/gcc/x86_64-unknown-linux-gnu/4.9.2/ -mtune=corei7 -march=x86-64 -g -O2
REM COMMAND_LINE
REM seed 2038173904 1876674691 -281165563 1545555612 1512250219 -389219758 -192356894 1711044389 503883613 -812764897 1427483323 -528310504
REM
REM S 3|1.8|5|6|7|30:31:32(qc=5)
REM O 2|1.5|12|13|15|20:21(qc=5)
REM Li 1|1.3|8|9|10|10U:20(qc=5)
REM Fe 3|2.2|2.0|1.0|8|9|10|40:41:32(qc=5)
REM F 2|1.6|10|12|13|20:21(qc=5)
REM 
CELL 1.54180    4.83927    4.90526   12.12435   90.00000   90.00000  116.36889
LATT -1
SFAC Li O  F  S  Fe 
Li     1 -0.4144510000000  0.3657020000000  0.4810940000000 1.0  -0.02
Li     1  0.4144510000000 -0.3657020000000 -0.0189060000000 1.0  -0.02
O      2 -0.2010530000000 -0.3288220000000  0.3600270000000 1.0   0.04
O      2  0.2450190000000  0.1778610000000  0.3647270000000 1.0   0.05
O      2 -0.2258240000000  0.0887480000000  0.4654650000000 1.0   0.02
O      2 -0.2174440000000  0.0949940000000  0.2595840000000 1.0   0.07
O      2  0.2010530000000  0.3288220000000 -0.1399730000000 1.0   0.04
O      2 -0.2450190000000 -0.1778610000000 -0.1352730000000 1.0   0.05
O      2  0.2258240000000 -0.0887480000000 -0.0345350000000 1.0   0.02
O      2  0.2174440000000 -0.0949940000000 -0.2404160000000 1.0   0.07
F      3  0.4439080000000 -0.4936240000000  0.1180880000000 1.0   0.12
F      3 -0.4439080000000  0.4936240000000 -0.3819120000000 1.0   0.12
S      4 -0.1040360000000  0.0091520000000  0.3651690000000 1.0   0.02
S      4  0.1040360000000 -0.0091520000000 -0.1348310000000 1.0   0.02
Fe     5 -0.4385690000000  0.3364980000000  0.2337800000000 1.0   3.72
Fe     5  0.4385690000000 -0.3364980000000 -0.2662200000000 1.0   3.72
END
