TITL 2LiFeSO4F-200804-033238-7d1961 -0.1173 260.597263 -7.56566333E+003 8.00000 8.16789 16 (P2) n - 1
REM
REM Run started: Tue, 04 Aug 2020 06:03:43 +0100 in /lustre/scratch/uccabz1/launch_tmp/launcher_2020-08-04-02-32-34-842793
REM CASTEP 20.1 from code version af48c487+ pr-geom-scf-spinfix Tue Jun 2 15:39:59 2020 +0100
REM Functional Perdew Burke Ernzerhof Relativity Koelling-Harmon Dispersion off
REM Cut-off 340.0000 eV Grid scale 1.7500 Gmax 16.5316 1/A FBSC none
REM MP grid 3 3 2 Offset 0.000 0.000 0.000 No. kpts 6 Spacing 0.07
REM Total runtime: 9828.46 s
REM Overall efficiency: 85.8333 %
REM
REM 2LiFeSO4F.cell (6abdf011d38848201efe8211ff585b1c)
REM
REM compiler GCC version 4.9.2
REM options -cpp -iprefix /lustre/shared/ucl/apps/gcc/4.9.2/bin/../lib/gcc/x86_64-unknown-linux-gnu/4.9.2/ -mtune=corei7 -march=x86-64 -g -Og
REM COMMAND_LINE
REM seed -286922727 571909581 -1022833408 -2102377894 -2100173236 622523699 465903554 743220998 -1445281509 443306477 -1978670799 1984096624
REM
REM S 3|1.8|5|6|7|30:31:32(qc=5)
REM O 2|1.5|12|13|15|20:21(qc=5)
REM Li 1|1.3|8|9|10|10U:20(qc=5)
REM Fe 3|2.2|2.0|1.0|8|9|10|40:41:32(qc=5)
REM F 2|1.6|10|12|13|20:21(qc=5)
REM 
CELL 1.54180    5.45669    6.16941    7.86873  100.33740   90.00000   90.00000
LATT -1
SFAC Li O  F  S  Fe 
Li     1  0.4266520000000 -0.3533470000000 -0.1105340000000 1.0  -0.02
Li     1  0.4266520000000  0.3533470000000  0.1105340000000 1.0  -0.02
O      2  0.0105180000000  0.0032150000000 -0.2151060000000 1.0   0.08
O      2  0.1156120000000 -0.3842860000000 -0.2428400000000 1.0   0.06
O      2 -0.0551710000000 -0.2441900000000 -0.4929840000000 1.0   0.08
O      2 -0.3180900000000 -0.2766370000000 -0.2512360000000 1.0   0.02
O      2  0.0105180000000 -0.0032150000000  0.2151060000000 1.0   0.08
O      2  0.1156120000000  0.3842860000000  0.2428400000000 1.0   0.06
O      2 -0.0551710000000  0.2441900000000  0.4929840000000 1.0   0.08
O      2 -0.3180900000000  0.2766370000000  0.2512360000000 1.0   0.02
F      3 -0.5969200000000  0.3232630000000 -0.1349110000000 1.0   0.09
F      3 -0.5969200000000 -0.3232630000000  0.1349110000000 1.0   0.09
S      4 -0.0679670000000 -0.2248270000000 -0.2996330000000 1.0   0.02
S      4 -0.0679670000000  0.2248270000000  0.2996330000000 1.0   0.02
Fe     5  0.1240690000000 -0.2743690000000  0.2911860000000 1.0   3.67
Fe     5  0.1240690000000  0.2743690000000 -0.2911860000000 1.0   3.67
END
