TITL 2LiFeSO4F-200818-230629-e64c50 -0.0642 210.537386 -7.56573232E+003 8.00000 8.10288 16 (P-1) n - 1
REM
REM Run started: Wed, 19 Aug 2020 02:25:19 +0100 in /lustre/scratch/uccabz1/launch_tmp/launcher_2020-08-18-22-06-26-295445
REM CASTEP 20.1 from code version af48c487+ pr-geom-scf-spinfix Tue Jun 2 15:39:59 2020 +0100
REM Functional Perdew Burke Ernzerhof Relativity Koelling-Harmon Dispersion off
REM Cut-off 340.0000 eV Grid scale 1.7500 Gmax 16.5316 1/A FBSC none
REM MP grid 4 3 3 Offset 0.000 0.000 0.000 No. kpts 18 Spacing 0.07
REM Total runtime: 12436.4 s
REM Overall efficiency: 95.6 %
REM
REM 2LiFeSO4F.cell (6abdf011d38848201efe8211ff585b1c)
REM
REM compiler GCC version 4.9.2
REM options -cpp -iprefix /lustre/shared/ucl/apps/gcc/4.9.2/bin/../lib/gcc/x86_64-unknown-linux-gnu/4.9.2/ -mtune=corei7 -march=x86-64 -g -Og
REM COMMAND_LINE
REM seed 619938239 1022270362 1220580916 -1805694386 390980139 -1391121234 1277278465 -588433473 -275942999 -105497298 -1450130830 2023163015
REM
REM S 3|1.8|5|6|7|30:31:32(qc=5)
REM O 2|1.5|12|13|15|20:21(qc=5)
REM Li 1|1.3|8|9|10|10U:20(qc=5)
REM Fe 3|2.2|2.0|1.0|8|9|10|40:41:32(qc=5)
REM F 2|1.6|10|12|13|20:21(qc=5)
REM 
CELL 1.54180    5.22716    7.48883    6.32486   82.53661   99.23285  120.35267
LATT -1
SFAC Li O  F  S  Fe 
Li     1  0.3897230000000 -0.1290730000000  0.3531690000000 1.0  -0.02
Li     1 -0.3897230000000  0.1290730000000 -0.3531690000000 1.0  -0.02
O      2  0.2334570000000  0.0598070000000 -0.2163100000000 1.0   0.04
O      2  0.0465920000000  0.2687900000000 -0.4568230000000 1.0   0.05
O      2  0.5500460000000  0.4294420000000 -0.2486730000000 1.0   0.04
O      2  0.0770050000000  0.2818320000000 -0.0769100000000 1.0   0.06
O      2 -0.2334570000000 -0.0598070000000  0.2163100000000 1.0   0.04
O      2 -0.0465920000000 -0.2687900000000  0.4568230000000 1.0   0.05
O      2 -0.5500460000000 -0.4294420000000  0.2486730000000 1.0   0.04
O      2 -0.0770050000000 -0.2818320000000  0.0769100000000 1.0   0.06
F      3 -0.4334830000000 -0.1400360000000 -0.3564180000000 1.0   0.08
F      3  0.4334830000000  0.1400360000000  0.3564180000000 1.0   0.08
S      4  0.2319310000000  0.2632590000000 -0.2480830000000 1.0   0.02
S      4 -0.2319310000000 -0.2632590000000  0.2480830000000 1.0   0.02
Fe     5  0.1505980000000  0.2469990000000  0.2460820000000 1.0   3.73
Fe     5 -0.1505980000000 -0.2469990000000 -0.2460820000000 1.0   3.73
END
