TITL 2LiFeSO4F-200819-002313-575625 -0.0370 202.426903 -7.56592161E+003 8.00000 8.07103 16 (Pc) n - 1
REM
REM Run started: Wed, 19 Aug 2020 01:52:18 +0100 in /lustre/scratch/uccabz1/launch_tmp/launcher_2020-08-18-23-23-10-974528
REM CASTEP 20.1 from code version af48c487+ pr-geom-scf-spinfix Tue Jun 2 15:39:59 2020 +0100
REM Functional Perdew Burke Ernzerhof Relativity Koelling-Harmon Dispersion off
REM Cut-off 340.0000 eV Grid scale 1.7500 Gmax 16.5316 1/A FBSC none
REM MP grid 2 4 3 Offset 0.000 0.000 0.000 No. kpts 6 Spacing 0.07
REM Total runtime: 5415.53 s
REM Overall efficiency: 83.3 %
REM
REM 2LiFeSO4F.cell (6abdf011d38848201efe8211ff585b1c)
REM
REM compiler GCC version 4.9.2
REM options -cpp -iprefix /lustre/shared/ucl/apps/gcc/4.9.2/bin/../lib/gcc/x86_64-unknown-linux-gnu/4.9.2/ -mtune=corei7 -march=x86-64 -g -Og
REM COMMAND_LINE
REM seed -1875202497 829610546 -1677955109 -2025734527 -37400850 -1731537760 -1115489333 1348249119 -1217762046 -854273196 -1761986111 1728645245
REM
REM S 3|1.8|5|6|7|30:31:32(qc=5)
REM O 2|1.5|12|13|15|20:21(qc=5)
REM Li 1|1.3|8|9|10|10U:20(qc=5)
REM Fe 3|2.2|2.0|1.0|8|9|10|40:41:32(qc=5)
REM F 2|1.6|10|12|13|20:21(qc=5)
REM 
CELL 1.54180    8.30270    4.87270    5.32391  109.97735   90.00000   90.00000
LATT -1
SFAC Li O  F  S  Fe 
Li     1 -0.0837400000000  0.0956810000000 -0.0874330000000 1.0  -0.01
Li     1  0.0837400000000  0.0956810000000  0.4125670000000 1.0  -0.01
O      2  0.1846520000000 -0.2664280000000 -0.5914450000000 1.0   0.02
O      2  0.2255360000000 -0.5527420000000 -0.2940730000000 1.0   0.05
O      2  0.4013620000000 -0.1254970000000 -0.2522170000000 1.0   0.06
O      2  0.4227910000000 -0.5768130000000 -0.6443150000000 1.0   0.07
O      2 -0.1846520000000 -0.2664280000000 -0.0914450000000 1.0   0.02
O      2 -0.2255360000000 -0.5527420000000  0.2059270000000 1.0   0.05
O      2 -0.4013620000000 -0.1254970000000  0.2477830000000 1.0   0.06
O      2 -0.4227910000000 -0.5768130000000 -0.1443150000000 1.0   0.07
F      3 -0.1142500000000  0.1336570000000 -0.4196170000000 1.0   0.06
F      3  0.1142500000000  0.1336570000000  0.0803830000000 1.0   0.06
S      4  0.3062000000000 -0.3705370000000 -0.4411970000000 1.0   0.01
S      4 -0.3062000000000 -0.3705370000000  0.0588030000000 1.0   0.01
Fe     5  0.3237730000000  0.2780310000000 -0.0236200000000 1.0   3.73
Fe     5 -0.3237730000000  0.2780310000000  0.4763800000000 1.0   3.73
END
