TITL 2LiFeSO4F-200819-015357-4d1d13 -0.0569 245.174857 -7.56574546E+003 8.00000 8.09280 16 (P-1) n - 1
REM
REM Run started: Wed, 19 Aug 2020 05:44:42 +0100 in /lustre/scratch/uccabz1/launch_tmp/launcher_2020-08-19-00-53-55-976071
REM CASTEP 20.1 from code version af48c487+ pr-geom-scf-spinfix Tue Jun 2 15:39:59 2020 +0100
REM Functional Perdew Burke Ernzerhof Relativity Koelling-Harmon Dispersion off
REM Cut-off 340.0000 eV Grid scale 1.7500 Gmax 16.5316 1/A FBSC none
REM MP grid 4 2 3 Offset 0.000 0.000 0.000 No. kpts 12 Spacing 0.07
REM Total runtime: 15298.9 s
REM Overall efficiency: 79.3333 %
REM
REM 2LiFeSO4F.cell (6abdf011d38848201efe8211ff585b1c)
REM
REM compiler GCC version 4.9.2
REM options -cpp -iprefix /lustre/shared/ucl/apps/gcc/4.9.2/bin/../lib/gcc/x86_64-unknown-linux-gnu/4.9.2/ -mtune=corei7 -march=x86-64 -g -Og
REM COMMAND_LINE
REM seed -712495752 -985242076 802926178 1921706296 -1205053242 1986077907 -449080019 957484379 2059012068 1947368665 1701760173 1172447485
REM
REM S 3|1.8|5|6|7|30:31:32(qc=5)
REM O 2|1.5|12|13|15|20:21(qc=5)
REM Li 1|1.3|8|9|10|10U:20(qc=5)
REM Fe 3|2.2|2.0|1.0|8|9|10|40:41:32(qc=5)
REM F 2|1.6|10|12|13|20:21(qc=5)
REM 
CELL 1.54180    4.93015    8.38647    6.48936   97.10602   88.29611   67.53343
LATT -1
SFAC Li O  F  S  Fe 
Li     1  0.4025810000000 -0.2144220000000  0.3999440000000 1.0  -0.02
Li     1 -0.4025810000000  0.2144220000000 -0.3999440000000 1.0  -0.02
O      2 -0.2202790000000  0.2542150000000  0.3330750000000 1.0   0.09
O      2  0.2246500000000 -0.0144940000000  0.2613050000000 1.0   0.01
O      2  0.2236400000000  0.2404770000000  0.5008300000000 1.0   0.01
O      2  0.2041660000000  0.2503870000000  0.1216730000000 1.0   0.08
O      2  0.2202790000000 -0.2542150000000 -0.3330750000000 1.0   0.09
O      2 -0.2246500000000  0.0144940000000 -0.2613050000000 1.0   0.01
O      2 -0.2236400000000 -0.2404770000000 -0.5008300000000 1.0   0.01
O      2 -0.2041660000000 -0.2503870000000 -0.1216730000000 1.0   0.08
F      3 -0.5363760000000 -0.3968100000000  0.1723780000000 1.0   0.11
F      3  0.5363760000000  0.3968100000000 -0.1723780000000 1.0   0.11
S      4  0.1215730000000  0.1772780000000  0.3071420000000 1.0   0.01
S      4 -0.1215730000000 -0.1772780000000 -0.3071420000000 1.0   0.01
Fe     5  0.4942080000000 -0.3506070000000 -0.1244250000000 1.0   3.71
Fe     5 -0.4942080000000  0.3506070000000  0.1244250000000 1.0   3.71
END
