TITL 2LiFeSO4F-200818-213604-a1dd8f -0.2980 236.331789 -7.56235621E+003 -7.38004 7.58732 16 (Cm) n - 1
REM
REM Run started: Wed, 19 Aug 2020 03:30:51 +0100 in /lustre/scratch/uccabz1/launch_tmp/launcher_2020-08-18-20-36-01-743804
REM CASTEP 20.1 from code version af48c487+ pr-geom-scf-spinfix Tue Jun 2 15:39:59 2020 +0100
REM Functional Perdew Burke Ernzerhof Relativity Koelling-Harmon Dispersion off
REM Cut-off 340.0000 eV Grid scale 1.7500 Gmax 16.5316 1/A FBSC none
REM MP grid 3 3 3 Offset 0.000 0.000 0.000 No. kpts 10 Spacing 0.07
REM Total runtime: 22791.3 s
REM Overall efficiency: 79.8462 %
REM
REM 2LiFeSO4F.cell (6abdf011d38848201efe8211ff585b1c)
REM
REM compiler GCC version 4.9.2
REM options -cpp -iprefix /lustre/shared/ucl/apps/gcc/4.9.2/bin/../lib/gcc/x86_64-unknown-linux-gnu/4.9.2/ -mtune=corei7 -march=x86-64 -g -Og
REM COMMAND_LINE
REM seed 503170264 187876224 -596854418 -630178426 562740351 -1715680712 -1408942478 1060734981 -2011063827 1841547223 -1245669660 380205615
REM
REM S 3|1.8|5|6|7|30:31:32(qc=5)
REM O 2|1.5|12|13|15|20:21(qc=5)
REM Li 1|1.3|8|9|10|10U:20(qc=5)
REM Fe 3|2.2|2.0|1.0|8|9|10|40:41:32(qc=5)
REM F 2|1.6|10|12|13|20:21(qc=5)
REM 
CELL 1.54180    5.54598    6.54666    6.54666   88.11236   94.19357   94.19357
LATT -1
SFAC Li O  F  S  Fe 
Li     1  0.2488940000000  0.2507760000000 -0.3767230000000 1.0  -0.01
Li     1  0.2488940000000 -0.3767230000000  0.2507760000000 1.0  -0.01
O      2 -0.0212670000000  0.4566880000000  0.1446390000000 1.0  -0.03
O      2 -0.1925300000000  0.1933560000000 -0.1081990000000 1.0  -0.06
O      2  0.0899460000000  0.4555690000000 -0.2140210000000 1.0  -0.11
O      2 -0.0212670000000  0.1446390000000  0.4566880000000 1.0  -0.03
O      2 -0.1925300000000 -0.1081990000000  0.1933560000000 1.0  -0.06
O      2  0.0899460000000 -0.2140210000000  0.4555690000000 1.0  -0.11
O      2  0.4418600000000  0.5466730000000  0.5466730000000 1.0  -0.62
O      2  0.4469580000000  0.1504450000000  0.1504450000000 1.0  -0.68
F      3 -0.5998230000000 -0.2631390000000  0.0057130000000 1.0  -0.09
F      3 -0.5998230000000  0.0057130000000 -0.2631390000000 1.0  -0.09
S      4 -0.1297000000000  0.4387090000000 -0.0693100000000 1.0  -0.02
S      4 -0.1297000000000 -0.0693100000000  0.4387090000000 1.0  -0.02
Fe     5  0.5999000000000  0.0128810000000  0.0128810000000 1.0  -1.92
Fe     5  0.2907990000000 -0.3049230000000 -0.3049230000000 1.0  -3.53
END
