TITL 2LiFeSO4F-200804-050633-c31b39 0.0598 198.009109 -7.56398681E+003 8.00000 8.13584 16 (Pma2) n - 1
REM
REM Run started: Tue, 04 Aug 2020 05:25:46 +0100 in /lustre/scratch/uccabz1/launch_tmp/launcher_2020-08-04-04-06-30-560018
REM CASTEP 20.1 from code version af48c487+ pr-geom-scf-spinfix Tue Jun 2 15:39:59 2020 +0100
REM Functional Perdew Burke Ernzerhof Relativity Koelling-Harmon Dispersion off
REM Cut-off 340.0000 eV Grid scale 1.7500 Gmax 16.5316 1/A FBSC none
REM MP grid 4 3 2 Offset 0.000 0.000 0.000 No. kpts 4 Spacing 0.07
REM Total runtime: 1210.45 s
REM Overall efficiency: 72.3333 %
REM
REM 2LiFeSO4F.cell (6abdf011d38848201efe8211ff585b1c)
REM
REM compiler GCC version 4.9.2
REM options -cpp -iprefix /lustre/shared/ucl/apps/gcc/4.9.2/bin/../lib/gcc/x86_64-unknown-linux-gnu/4.9.2/ -mtune=corei7 -march=x86-64 -g -Og
REM COMMAND_LINE
REM seed -1275651800 512421786 -379160980 -1338138952 1240384885 -1413356987 254147996 -429943907 676711621 -1710891402 921325502 -1628017016
REM
REM S 3|1.8|5|6|7|30:31:32(qc=5)
REM O 2|1.5|12|13|15|20:21(qc=5)
REM Li 1|1.3|8|9|10|10U:20(qc=5)
REM Fe 3|2.2|2.0|1.0|8|9|10|40:41:32(qc=5)
REM F 2|1.6|10|12|13|20:21(qc=5)
REM 
CELL 1.54180    4.17975    4.93007    9.60909   90.00000   90.00000   90.00000
LATT -1
SFAC Li O  F  S  Fe 
Li     1 -0.2714070000000  0.6150370000000 -0.2500000000000 1.0  -0.05
Li     1 -0.2714070000000 -0.6150370000000  0.2500000000000 1.0  -0.05
O      2  0.0036240000000 -0.3111750000000 -0.0882960000000 1.0   0.02
O      2 -0.5942310000000 -0.3325010000000  0.0962720000000 1.0   0.07
O      2  0.0036240000000  0.3111750000000  0.0882960000000 1.0   0.02
O      2 -0.5942310000000  0.3325010000000 -0.0962720000000 1.0   0.07
O      2  0.0036240000000  0.3111750000000 -0.5882960000000 1.0   0.02
O      2 -0.5942310000000  0.3325010000000 -0.4037280000000 1.0   0.07
O      2  0.0036240000000 -0.3111750000000  0.5882960000000 1.0   0.02
O      2 -0.5942310000000 -0.3325010000000  0.4037280000000 1.0   0.07
F      3 -0.2468870000000  0.0291230000000 -0.2500000000000 1.0   0.09
F      3 -0.2468870000000 -0.0291230000000  0.2500000000000 1.0   0.09
S      4  0.1946420000000 -0.5000000000000 -0.0000000000000 1.0   0.01
S      4  0.1946420000000  0.5000000000000  0.5000000000000 1.0   0.01
Fe     5  0.2241140000000  0.0895370000000 -0.2500000000000 1.0   3.77
Fe     5  0.2241140000000 -0.0895370000000  0.2500000000000 1.0   3.77
END
