TITL 2LiFeSO4F-200819-003254-6fd1b4 0.0037 203.251243 -7.56577482E+003 8.00000 8.15774 16 (C2/c) n - 1
REM
REM Run started: Wed, 19 Aug 2020 03:49:03 +0100 in /lustre/scratch/uccabz1/launch_tmp/launcher_2020-08-18-23-32-51-909958
REM CASTEP 20.1 from code version af48c487+ pr-geom-scf-spinfix Tue Jun 2 15:39:59 2020 +0100
REM Functional Perdew Burke Ernzerhof Relativity Koelling-Harmon Dispersion off
REM Cut-off 340.0000 eV Grid scale 1.7500 Gmax 16.5316 1/A FBSC none
REM MP grid 3 3 3 Offset 0.000 0.000 0.000 No. kpts 10 Spacing 0.07
REM Total runtime: 12415.3 s
REM Overall efficiency: 96.1818 %
REM
REM 2LiFeSO4F.cell (6abdf011d38848201efe8211ff585b1c)
REM
REM compiler GCC version 4.9.2
REM options -cpp -iprefix /lustre/shared/ucl/apps/gcc/4.9.2/bin/../lib/gcc/x86_64-unknown-linux-gnu/4.9.2/ -mtune=corei7 -march=x86-64 -g -Og
REM COMMAND_LINE
REM seed -1890234102 -1051452668 769264686 1113713919 -2126069280 2029101098 -986872954 -1901503243 -1586053735 1661373373 -2049643057 1017135737
REM
REM S 3|1.8|5|6|7|30:31:32(qc=5)
REM O 2|1.5|12|13|15|20:21(qc=5)
REM Li 1|1.3|8|9|10|10U:20(qc=5)
REM Fe 3|2.2|2.0|1.0|8|9|10|40:41:32(qc=5)
REM F 2|1.6|10|12|13|20:21(qc=5)
REM 
CELL 1.54180    5.92726    5.92726    7.60708  115.40602  115.40602   96.40214
LATT -1
SFAC Li O  F  S  Fe 
Li     1 -0.5065280000000  0.0027420000000  0.2479800000000 1.0  -0.01
Li     1 -1.0027420000000 -0.4934720000000 -0.2479800000000 1.0  -0.01
O      2  0.1830800000000 -0.3270630000000 -0.4026370000000 1.0   0.06
O      2  0.3316430000000  0.2962290000000 -0.1829220000000 1.0   0.05
O      2  0.2765800000000  0.3508300000000 -0.6829710000000 1.0   0.06
O      2  0.7984380000000  0.3462870000000 -0.0969690000000 1.0   0.06
O      2  0.3270630000000 -0.1830800000000  0.4026370000000 1.0   0.06
O      2 -0.2962290000000 -0.3316430000000  0.1829220000000 1.0   0.05
O      2 -0.3508300000000 -0.2765800000000  0.6829710000000 1.0   0.06
O      2 -0.3462870000000 -0.7984380000000  0.0969690000000 1.0   0.06
F      3  0.1505510000000 -0.1505510000000  0.0000000000000 1.0   0.07
F      3 -0.1678470000000  0.1678470000000 -0.5000000000000 1.0   0.07
S      4  0.6197750000000  0.3802250000000  0.0000000000000 1.0   0.01
S      4 -0.6384710000000 -0.3615290000000  0.5000000000000 1.0   0.01
Fe     5  0.0531110000000 -0.0531110000000 -0.5000000000000 1.0   3.69
Fe     5 -0.0706340000000  0.0706340000000  0.0000000000000 1.0   3.69
END
