TITL 2LiFeSO4F-200818-195502-08e4fc -0.1310 266.687273 -7.56509046E+003 8.00000 8.18418 16 (P21) n - 1
REM
REM Run started: Tue, 18 Aug 2020 22:36:37 +0100 in /scratch/scratch/uccabz1/launch_tmp/launcher_2020-08-18-19-50-06-480056
REM CASTEP 19.11| from code version Version unavailable
REM Functional Perdew Burke Ernzerhof Relativity Koelling-Harmon Dispersion off
REM Cut-off 340.0000 eV Grid scale 1.7500 Gmax 16.5316 1/A FBSC none
REM MP grid 3 4 2 Offset 0.000 0.000 0.000 No. kpts 8 Spacing 0.07
REM Total runtime: 8228.79 s
REM Overall efficiency: 77.5455 %
REM
REM
REM
REM compiler GCC version 4.9.2
REM options -cpp -iprefix /scratch/UCL/applications/gcc/4.9.2/bin/../lib/gcc/x86_64-unknown-linux-gnu/4.9.2/ -mtune=corei7 -march=x86-64 -g -O2
REM COMMAND_LINE
REM seed 518905141 915142983 -1425959461 -2098721353 1307743028 -151921378 -1195178857 -1407619266 -1839354770 -328212976 1519732960 1925714063
REM
REM S 3|1.8|5|6|7|30:31:32(qc=5)
REM O 2|1.5|12|13|15|20:21(qc=5)
REM Li 1|1.3|8|9|10|10U:20(qc=5)
REM Fe 3|2.2|2.0|1.0|8|9|10|40:41:32(qc=5)
REM F 2|1.6|10|12|13|20:21(qc=5)
REM 
CELL 1.54180    5.71410    5.60053   10.23829  125.51630   90.00000   90.00000
LATT -1
SFAC Li O  F  S  Fe 
Li     1  0.3960950000000  0.2326650000000  0.1120310000000 1.0  -0.02
Li     1 -0.1039050000000 -0.2326650000000 -0.1120310000000 1.0  -0.02
O      2 -0.3969570000000 -0.4904710000000  0.0893160000000 1.0   0.01
O      2 -0.1933880000000 -0.0434570000000  0.3060020000000 1.0   0.09
O      2 -0.6079010000000 -0.0148400000000  0.2637490000000 1.0   0.08
O      2 -0.3314590000000 -0.0711000000000  0.0687310000000 1.0   0.01
O      2  0.1030430000000  0.4904710000000 -0.0893160000000 1.0   0.01
O      2  0.3066120000000  0.0434570000000 -0.3060020000000 1.0   0.09
O      2 -0.1079010000000  0.0148400000000 -0.2637490000000 1.0   0.08
O      2  0.1685410000000  0.0711000000000 -0.0687310000000 1.0   0.01
F      3 -0.2684860000000 -0.5107550000000 -0.2922710000000 1.0   0.14
F      3  0.2315140000000  0.5107550000000  0.2922710000000 1.0   0.14
S      4 -0.3813410000000 -0.1681540000000  0.1748180000000 1.0   0.01
S      4  0.1186590000000  0.1681540000000 -0.1748180000000 1.0   0.01
Fe     5 -0.3854860000000  0.1741590000000 -0.2998050000000 1.0   3.67
Fe     5  0.1145140000000 -0.1741590000000  0.2998050000000 1.0   3.67
END
