TITL 2LiFeSO4F-200804-024719-e4553a 0.0007 233.267688 -7.55683041E+003 12.0000 12.1123 16 (C2) n - 1
REM
REM Run started: Tue, 04 Aug 2020 05:52:52 +0100 in /lustre/scratch/uccabz1/launch_tmp/launcher_2020-08-04-01-47-18-119453
REM CASTEP 20.1 from code version af48c487+ pr-geom-scf-spinfix Tue Jun 2 15:39:59 2020 +0100
REM Functional Perdew Burke Ernzerhof Relativity Koelling-Harmon Dispersion off
REM Cut-off 340.0000 eV Grid scale 1.7500 Gmax 16.5316 1/A FBSC none
REM MP grid 4 3 3 Offset 0.000 0.000 0.000 No. kpts 12 Spacing 0.07
REM Total runtime: 11390.6 s
REM Overall efficiency: 74.8889 %
REM
REM 2LiFeSO4F.cell (6abdf011d38848201efe8211ff585b1c)
REM
REM compiler GCC version 4.9.2
REM options -cpp -iprefix /lustre/shared/ucl/apps/gcc/4.9.2/bin/../lib/gcc/x86_64-unknown-linux-gnu/4.9.2/ -mtune=corei7 -march=x86-64 -g -Og
REM COMMAND_LINE
REM seed -427508815 838540547 -364574722 -1452911354 352083187 -1314759284 611765629 -652704734 -778750581 -1621677649 1268047933 -988502663
REM
REM S 3|1.8|5|6|7|30:31:32(qc=5)
REM O 2|1.5|12|13|15|20:21(qc=5)
REM Li 1|1.3|8|9|10|10U:20(qc=5)
REM Fe 3|2.2|2.0|1.0|8|9|10|40:41:32(qc=5)
REM F 2|1.6|10|12|13|20:21(qc=5)
REM 
CELL 1.54180    5.14625    7.01947    7.01947   95.23930  104.95686  104.95686
LATT -1
SFAC Li O  F  S  Fe 
Li     1 -0.5000000000000  0.1316590000000 -0.1316590000000 1.0  -0.03
Li     1 -0.5000000000000  0.4942000000000 -0.4942000000000 1.0  -0.09
O      2  0.2052910000000  0.5132790000000 -0.0194450000000 1.0   0.21
O      2 -0.0866100000000  0.2739350000000  0.1152010000000 1.0   0.13
O      2  0.4250580000000  0.3391140000000  0.2456400000000 1.0   0.14
O      2 -0.2052910000000  0.0194450000000 -0.5132790000000 1.0   0.21
O      2  0.0866100000000 -0.1152010000000 -0.2739350000000 1.0   0.13
O      2 -0.4250580000000 -0.2456400000000 -0.3391140000000 1.0   0.14
O      2 -0.5000000000000  0.3130520000000 -0.3130520000000 1.0   1.11
O      2 -0.5000000000000 -0.2775310000000  0.2775310000000 1.0   1.79
F      3  0.0000000000000  0.4646940000000 -0.4646940000000 1.0   0.16
F      3  0.5000000000000 -0.0474330000000  0.0474330000000 1.0   0.15
S      4  0.1810330000000  0.3063440000000  0.0463180000000 1.0   0.04
S      4 -0.1810330000000 -0.0463180000000 -0.3063440000000 1.0   0.04
Fe     5  0.2657260000000 -0.3241900000000 -0.2121970000000 1.0   3.93
Fe     5 -0.2657260000000  0.2121970000000  0.3241900000000 1.0   3.93
END
