TITL 2LiFeSO4F-200804-033914-55586e 0.0496 222.546576 -7.55979889E+003 4.57526 5.63113 16 (Imm2) n - 1
REM
REM Run started: Tue, 04 Aug 2020 04:37:37 +0100 in /lustre/scratch/uccabz1/launch_tmp/launcher_2020-08-04-02-39-12-227139
REM CASTEP 20.1 from code version af48c487+ pr-geom-scf-spinfix Tue Jun 2 15:39:59 2020 +0100
REM Functional Perdew Burke Ernzerhof Relativity Koelling-Harmon Dispersion off
REM Cut-off 340.0000 eV Grid scale 1.7500 Gmax 16.5316 1/A FBSC none
REM MP grid 4 3 2 Offset 0.000 0.000 0.000 No. kpts 4 Spacing 0.07
REM Total runtime: 3194.71 s
REM Overall efficiency: 73.5556 %
REM
REM 2LiFeSO4F.cell (6abdf011d38848201efe8211ff585b1c)
REM
REM compiler GCC version 4.9.2
REM options -cpp -iprefix /lustre/shared/ucl/apps/gcc/4.9.2/bin/../lib/gcc/x86_64-unknown-linux-gnu/4.9.2/ -mtune=corei7 -march=x86-64 -g -Og
REM COMMAND_LINE
REM seed 1081307905 181106108 -1734624832 -1287259342 275123453 455659646 1382897657 -1475868847 -1871010375 910155404 -596989437 1570817692
REM
REM S 3|1.8|5|6|7|30:31:32(qc=5)
REM O 2|1.5|12|13|15|20:21(qc=5)
REM Li 1|1.3|8|9|10|10U:20(qc=5)
REM Fe 3|2.2|2.0|1.0|8|9|10|40:41:32(qc=5)
REM F 2|1.6|10|12|13|20:21(qc=5)
REM 
CELL 1.54180    3.88089    5.54204   10.34712   90.00000   90.00000   90.00000
LATT -1
SFAC Li O  F  S  Fe 
Li     1 -0.0000000000000  0.5000000000000  0.1731670000000 1.0  -0.01
Li     1 -0.5000000000000  0.0000000000000 -0.3268330000000 1.0  -0.01
O      2  0.4993050000000  0.2853470000000 -0.2058140000000 1.0  -0.01
O      2 -0.0000740000000  0.2571800000000  0.0300740000000 1.0   0.28
O      2 -0.4993050000000 -0.2853470000000 -0.2058140000000 1.0  -0.01
O      2  0.0000740000000 -0.2571800000000  0.0300740000000 1.0   0.28
O      2  0.0006950000000 -0.2146530000000  0.2941860000000 1.0  -0.01
O      2  0.5000740000000 -0.2428200000000  0.5300740000000 1.0   0.28
O      2 -0.0006950000000  0.2146530000000  0.2941860000000 1.0  -0.01
O      2 -0.5000740000000  0.2428200000000  0.5300740000000 1.0   0.28
F      3 -0.0000000000000 -0.5000000000000 -0.3591330000000 1.0   0.03
F      3  0.5000000000000  0.0000000000000  0.1408670000000 1.0   0.03
S      4  0.5000000000000  0.5000000000000 -0.1139660000000 1.0  -0.16
S      4 -0.0000000000000  0.0000000000000  0.3860340000000 1.0  -0.16
Fe     5 -0.0000000000000  0.0000000000000  0.1118160000000 1.0   1.88
Fe     5 -0.5000000000000 -0.5000000000000 -0.3881840000000 1.0   1.88
END
