TITL 2LiFeSO4F-200819-002725-490b2b 0.0192 211.328864 -7.56379265E+003 8.00000 8.14784 16 (Ccc2) n - 1
REM
REM Run started: Wed, 19 Aug 2020 01:34:31 +0100 in /lustre/scratch/uccabz1/launch_tmp/launcher_2020-08-18-23-27-23-394335
REM CASTEP 20.1 from code version af48c487+ pr-geom-scf-spinfix Tue Jun 2 15:39:59 2020 +0100
REM Functional Perdew Burke Ernzerhof Relativity Koelling-Harmon Dispersion off
REM Cut-off 340.0000 eV Grid scale 1.7500 Gmax 16.5316 1/A FBSC none
REM MP grid 4 3 2 Offset 0.000 0.000 0.000 No. kpts 6 Spacing 0.07
REM Total runtime: 4206.21 s
REM Overall efficiency: 73.1 %
REM
REM 2LiFeSO4F.cell (6abdf011d38848201efe8211ff585b1c)
REM
REM compiler GCC version 4.9.2
REM options -cpp -iprefix /lustre/shared/ucl/apps/gcc/4.9.2/bin/../lib/gcc/x86_64-unknown-linux-gnu/4.9.2/ -mtune=corei7 -march=x86-64 -g -Og
REM COMMAND_LINE
REM seed 1934707260 634872148 -1986129619 427953500 1584537079 656383002 1266704161 -1308184004 -1976808786 511581255 15897585 -1427569502
REM
REM S 3|1.8|5|6|7|30:31:32(qc=5)
REM O 2|1.5|12|13|15|20:21(qc=5)
REM Li 1|1.3|8|9|10|10U:20(qc=5)
REM Fe 3|2.2|2.0|1.0|8|9|10|40:41:32(qc=5)
REM F 2|1.6|10|12|13|20:21(qc=5)
REM 
CELL 1.54180    4.36321    5.62487    9.34199   90.00000   90.00000  112.82082
LATT -1
SFAC Li O  F  S  Fe 
Li     1 -0.5000000000000 -0.0000000000000 -0.1189750000000 1.0  -0.02
Li     1  0.5000000000000 -0.0000000000000  0.3810250000000 1.0  -0.02
O      2 -0.7190810000000  0.1762170000000 -0.4612150000000 1.0   0.05
O      2 -0.1235590000000  0.1653190000000 -0.2763810000000 1.0   0.02
O      2  0.7190810000000 -0.1762170000000 -0.4612150000000 1.0   0.05
O      2  0.1235590000000 -0.1653190000000 -0.2763810000000 1.0   0.02
O      2 -0.8952980000000 -0.1762170000000  0.0387850000000 1.0   0.05
O      2 -0.2888780000000 -0.1653190000000  0.2236190000000 1.0   0.02
O      2  0.8952980000000  0.1762170000000  0.0387850000000 1.0   0.05
O      2  0.2888780000000  0.1653190000000  0.2236190000000 1.0   0.02
F      3  0.5000000000000 -0.5000000000000 -0.1429260000000 1.0   0.17
F      3 -0.0000000000000 -0.5000000000000  0.3570740000000 1.0   0.17
S      4 -0.0000000000000 -0.0000000000000  0.1349400000000 1.0   0.00
S      4 -0.0000000000000 -0.0000000000000 -0.3650600000000 1.0   0.00
Fe     5 -0.0000000000000 -0.5000000000000  0.1612540000000 1.0   3.72
Fe     5 -0.5000000000000  0.5000000000000 -0.3387460000000 1.0   3.72
END
