TITL 2LiFeSO4F-200804-053842-9e7bc2 -0.0193 274.190129 -7.56529624E+003 8.00000 8.15602 16 (P-1) n - 1
REM
REM Run started: Tue, 04 Aug 2020 09:48:28 +0100 in /lustre/scratch/uccabz1/launch_tmp/launcher_2020-08-04-04-38-40-181778
REM CASTEP 20.1 from code version af48c487+ pr-geom-scf-spinfix Tue Jun 2 15:39:59 2020 +0100
REM Functional Perdew Burke Ernzerhof Relativity Koelling-Harmon Dispersion off
REM Cut-off 340.0000 eV Grid scale 1.7500 Gmax 16.5316 1/A FBSC none
REM MP grid 4 3 2 Offset 0.000 0.000 0.000 No. kpts 12 Spacing 0.07
REM Total runtime: 17279.6 s
REM Overall efficiency: 80 %
REM
REM 2LiFeSO4F.cell (6abdf011d38848201efe8211ff585b1c)
REM
REM compiler GCC version 4.9.2
REM options -cpp -iprefix /lustre/shared/ucl/apps/gcc/4.9.2/bin/../lib/gcc/x86_64-unknown-linux-gnu/4.9.2/ -mtune=corei7 -march=x86-64 -g -Og
REM COMMAND_LINE
REM seed -1982872010 -979870471 1173501534 389363842 -440002040 995741085 -497395210 448482341 -1783164110 -19559017 -608436240 -1964696768
REM
REM S 3|1.8|5|6|7|30:31:32(qc=5)
REM O 2|1.5|12|13|15|20:21(qc=5)
REM Li 1|1.3|8|9|10|10U:20(qc=5)
REM Fe 3|2.2|2.0|1.0|8|9|10|40:41:32(qc=5)
REM F 2|1.6|10|12|13|20:21(qc=5)
REM 
CELL 1.54180    6.86447    6.02833   10.91804  116.58664   49.57755  126.77585
LATT -1
SFAC Li O  F  S  Fe 
Li     1 -0.0382600000000 -0.0725160000000  0.1143490000000 1.0  -0.01
Li     1  0.0382600000000  0.0725160000000 -0.1143490000000 1.0  -0.01
O      2 -0.0503920000000 -0.4654230000000  0.3297200000000 1.0   0.01
O      2 -0.2609280000000 -0.3924420000000  0.2423750000000 1.0   0.07
O      2  0.1761820000000 -0.0142590000000  0.2318260000000 1.0   0.06
O      2 -0.2701660000000 -0.1397010000000  0.4951130000000 1.0   0.07
O      2  0.0503920000000  0.4654230000000 -0.3297200000000 1.0   0.01
O      2  0.2609280000000  0.3924420000000 -0.2423750000000 1.0   0.07
O      2 -0.1761820000000  0.0142590000000 -0.2318260000000 1.0   0.06
O      2  0.2701660000000  0.1397010000000 -0.4951130000000 1.0   0.07
F      3  0.2314960000000 -0.0392530000000 -0.1055530000000 1.0   0.08
F      3 -0.2314960000000  0.0392530000000  0.1055530000000 1.0   0.08
S      4 -0.0982320000000 -0.2593890000000  0.3288240000000 1.0   0.01
S      4  0.0982320000000  0.2593890000000 -0.3288240000000 1.0   0.01
Fe     5 -0.4991720000000 -0.1928400000000 -0.2751690000000 1.0   3.70
Fe     5  0.4991720000000  0.1928400000000  0.2751690000000 1.0   3.70
END
