TITL 2LiFeSO4F-200804-043921-e2cc8f -0.0040 260.472605 -7.56556961E+003 8.00000 8.17550 16 (P21) n - 1
REM
REM Run started: Tue, 04 Aug 2020 05:59:30 +0100 in /lustre/scratch/uccabz1/launch_tmp/launcher_2020-08-04-03-39-18-943686
REM CASTEP 20.1 from code version af48c487+ pr-geom-scf-spinfix Tue Jun 2 15:39:59 2020 +0100
REM Functional Perdew Burke Ernzerhof Relativity Koelling-Harmon Dispersion off
REM Cut-off 340.0000 eV Grid scale 1.7500 Gmax 16.5316 1/A FBSC none
REM MP grid 3 4 2 Offset 0.000 0.000 0.000 No. kpts 6 Spacing 0.07
REM Total runtime: 4842.48 s
REM Overall efficiency: 71.5 %
REM
REM 2LiFeSO4F.cell (6abdf011d38848201efe8211ff585b1c)
REM
REM compiler GCC version 4.9.2
REM options -cpp -iprefix /lustre/shared/ucl/apps/gcc/4.9.2/bin/../lib/gcc/x86_64-unknown-linux-gnu/4.9.2/ -mtune=corei7 -march=x86-64 -g -Og
REM COMMAND_LINE
REM seed -535716265 -1466447202 239918871 1608827382 665440678 -523521073 974464240 877684856 -255329666 -1611176634 -574423676 -1900200074
REM
REM S 3|1.8|5|6|7|30:31:32(qc=5)
REM O 2|1.5|12|13|15|20:21(qc=5)
REM Li 1|1.3|8|9|10|10U:20(qc=5)
REM Fe 3|2.2|2.0|1.0|8|9|10|40:41:32(qc=5)
REM F 2|1.6|10|12|13|20:21(qc=5)
REM 
CELL 1.54180    5.75088    5.16152    9.85221   90.00000   90.00000   62.95740
LATT -1
SFAC Li O  F  S  Fe 
Li     1  0.6573260000000  0.0389510000000  0.3993460000000 1.0  -0.02
Li     1 -0.6573260000000 -0.0389510000000 -0.1006540000000 1.0  -0.02
O      2  0.0311470000000  0.6060250000000  0.0127050000000 1.0   0.06
O      2  0.1000300000000  0.3314500000000 -0.1964930000000 1.0   0.06
O      2  0.0982160000000  0.8104640000000 -0.2002760000000 1.0   0.05
O      2 -0.3109630000000  0.7744040000000 -0.1660510000000 1.0   0.01
O      2 -0.0311470000000 -0.6060250000000  0.5127050000000 1.0   0.06
O      2 -0.1000300000000 -0.3314500000000  0.3035070000000 1.0   0.06
O      2 -0.0982160000000 -0.8104640000000  0.2997240000000 1.0   0.05
O      2  0.3109630000000 -0.7744040000000  0.3339490000000 1.0   0.01
F      3 -0.6859590000000 -0.0882290000000  0.0798820000000 1.0   0.14
F      3  0.6859590000000  0.0882290000000 -0.4201180000000 1.0   0.14
S      4 -0.0294080000000  0.6380020000000 -0.1363120000000 1.0   0.02
S      4  0.0294080000000 -0.6380020000000  0.3636880000000 1.0   0.02
Fe     5  0.0681750000000 -0.1641640000000  0.1710340000000 1.0   3.69
Fe     5 -0.0681750000000  0.1641640000000 -0.3289660000000 1.0   3.69
END
