TITL 2LiFeSO4F-200819-011943-a3ddbf -0.0647 204.056553 -7.55818684E+003 11.9986 12.1086 16 (P-1) n - 1
REM
REM Run started: Wed, 19 Aug 2020 06:52:08 +0100 in /lustre/scratch/uccabz1/launch_tmp/launcher_2020-08-19-00-19-40-856813
REM CASTEP 20.1 from code version af48c487+ pr-geom-scf-spinfix Tue Jun 2 15:39:59 2020 +0100
REM Functional Perdew Burke Ernzerhof Relativity Koelling-Harmon Dispersion off
REM Cut-off 340.0000 eV Grid scale 1.7500 Gmax 16.5316 1/A FBSC none
REM MP grid 4 2 3 Offset 0.000 0.000 0.000 No. kpts 12 Spacing 0.07
REM Total runtime: 24152.4 s
REM Overall efficiency: 84.4 %
REM
REM 2LiFeSO4F.cell (6abdf011d38848201efe8211ff585b1c)
REM
REM compiler GCC version 4.9.2
REM options -cpp -iprefix /lustre/shared/ucl/apps/gcc/4.9.2/bin/../lib/gcc/x86_64-unknown-linux-gnu/4.9.2/ -mtune=corei7 -march=x86-64 -g -Og
REM COMMAND_LINE
REM seed 246315148 -265413313 1329402359 -562620961 -2111341955 -1011534441 -3658610 -954731976 -1470804480 1820097098 -1484914455 -1118017077
REM
REM S 3|1.8|5|6|7|30:31:32(qc=5)
REM O 2|1.5|12|13|15|20:21(qc=5)
REM Li 1|1.3|8|9|10|10U:20(qc=5)
REM Fe 3|2.2|2.0|1.0|8|9|10|40:41:32(qc=5)
REM F 2|1.6|10|12|13|20:21(qc=5)
REM 
CELL 1.54180    4.52412    7.50755    6.12092   83.90196   85.05181   97.17317
LATT -1
SFAC Li O  F  S  Fe 
Li     1  0.2641070000000  0.0864380000000 -0.2670590000000 1.0  -0.08
Li     1 -0.2641070000000 -0.0864380000000  0.2670590000000 1.0  -0.08
O      2  0.6309140000000  0.3201280000000  0.4745130000000 1.0   0.13
O      2  0.2368610000000  0.3903850000000  0.2397320000000 1.0   0.18
O      2  0.4661600000000  0.1069340000000  0.2122540000000 1.0   0.12
O      2 -0.6309140000000 -0.3201280000000 -0.4745130000000 1.0   0.13
O      2 -0.2368610000000 -0.3903850000000 -0.2397320000000 1.0   0.18
O      2 -0.4661600000000 -0.1069340000000 -0.2122540000000 1.0   0.12
O      2  0.0000000000000  0.0000000000000  0.5000000000000 1.0   1.50
O      2  0.0000000000000  0.0000000000000  0.0000000000000 1.0   1.52
F      3  0.0951310000000  0.3394270000000 -0.2273270000000 1.0   0.18
F      3 -0.0951310000000 -0.3394270000000  0.2273270000000 1.0   0.18
S      4  0.5435170000000  0.3023510000000  0.2371220000000 1.0   0.06
S      4 -0.5435170000000 -0.3023510000000 -0.2371220000000 1.0   0.06
Fe     5  0.0000000000000 -0.5000000000000 -0.5000000000000 1.0   3.96
Fe     5  0.0000000000000  0.5000000000000  0.0000000000000 1.0   3.82
END
