TITL 2LiFeSO4F-200818-224734-b68fb4 -0.0164 206.283986 -7.56420120E+003 8.00000 8.16194 16 (C2) n - 1
REM
REM Run started: Wed, 19 Aug 2020 01:06:56 +0100 in /scratch/scratch/uccabz1/launch_tmp/launcher_2020-08-18-21-47-31-650484
REM CASTEP 19.11| from code version Version unavailable
REM Functional Perdew Burke Ernzerhof Relativity Koelling-Harmon Dispersion off
REM Cut-off 340.0000 eV Grid scale 1.7500 Gmax 16.5316 1/A FBSC none
REM MP grid 4 3 3 Offset 0.000 0.000 0.000 No. kpts 12 Spacing 0.07
REM Total runtime: 8681.2 s
REM Overall efficiency: 93.3333 %
REM
REM 2LiFeSO4F.cell (6abdf011d38848201efe8211ff585b1c)
REM
REM compiler GCC version 4.9.2
REM options -cpp -iprefix /scratch/UCL/applications/gcc/4.9.2/bin/../lib/gcc/x86_64-unknown-linux-gnu/4.9.2/ -mtune=corei7 -march=x86-64 -g -O2
REM COMMAND_LINE
REM seed 2141744223 -733839611 2000416888 -2082831875 754600867 659168296 173235456 -95398879 2055074840 990727989 -674062174 -1095665578
REM
REM S 3|1.8|5|6|7|30:31:32(qc=5)
REM O 2|1.5|12|13|15|20:21(qc=5)
REM Li 1|1.3|8|9|10|10U:20(qc=5)
REM Fe 3|2.2|2.0|1.0|8|9|10|40:41:32(qc=5)
REM F 2|1.6|10|12|13|20:21(qc=5)
REM 
CELL 1.54180    4.06577    7.17180    7.17180   82.22028   85.94905   85.94905
LATT -1
SFAC Li O  F  S  Fe 
Li     1  0.6511350000000 -0.2592660000000 -0.0638720000000 1.0  -0.01
Li     1 -0.6511350000000  0.0638720000000  0.2592660000000 1.0  -0.01
O      2  0.2113550000000  0.2234250000000 -0.0305430000000 1.0   0.05
O      2  0.0997080000000  0.4644700000000  0.1786660000000 1.0   0.07
O      2 -0.2577300000000  0.2050180000000  0.1989600000000 1.0   0.02
O      2 -0.2580270000000  0.4559580000000 -0.0830580000000 1.0   0.03
O      2 -0.2113550000000  0.0305430000000 -0.2234250000000 1.0   0.05
O      2 -0.0997080000000 -0.1786660000000 -0.4644700000000 1.0   0.07
O      2  0.2577300000000 -0.1989600000000 -0.2050180000000 1.0   0.02
O      2  0.2580270000000  0.0830580000000 -0.4559580000000 1.0   0.03
F      3  0.5000000000000 -0.5207800000000  0.5207800000000 1.0   0.13
F      3  0.0000000000000 -0.1582410000000  0.1582410000000 1.0   0.14
S      4 -0.0625440000000  0.3360650000000  0.0659710000000 1.0   0.01
S      4  0.0625440000000 -0.0659710000000 -0.3360650000000 1.0   0.01
Fe     5  0.0000000000000 -0.3601450000000  0.3601450000000 1.0   3.67
Fe     5  0.5000000000000  0.2779700000000 -0.2779700000000 1.0   3.74
END
