TITL 2LiFeSO4F-200804-053115-2f0f4a 0.0069 213.399593 -7.56449447E+003 -8.00000 8.10220 16 (C2) n - 1
REM
REM Run started: Tue, 04 Aug 2020 08:27:22 +0100 in /lustre/scratch/uccabz1/launch_tmp/launcher_2020-08-04-04-31-13-423606
REM CASTEP 20.1 from code version af48c487+ pr-geom-scf-spinfix Tue Jun 2 15:39:59 2020 +0100
REM Functional Perdew Burke Ernzerhof Relativity Koelling-Harmon Dispersion off
REM Cut-off 340.0000 eV Grid scale 1.7500 Gmax 16.5316 1/A FBSC none
REM MP grid 3 3 3 Offset 0.000 0.000 0.000 No. kpts 10 Spacing 0.07
REM Total runtime: 10918.4 s
REM Overall efficiency: 95.3636 %
REM
REM 2LiFeSO4F.cell (6abdf011d38848201efe8211ff585b1c)
REM
REM compiler GCC version 4.9.2
REM options -cpp -iprefix /lustre/shared/ucl/apps/gcc/4.9.2/bin/../lib/gcc/x86_64-unknown-linux-gnu/4.9.2/ -mtune=corei7 -march=x86-64 -g -Og
REM COMMAND_LINE
REM seed 1165913490 1350878832 2112716331 -795817160 -1082582156 1337839705 -457262911 1483068538 -1087344863 -1443279431 -230418291 -550287460
REM
REM S 3|1.8|5|6|7|30:31:32(qc=5)
REM O 2|1.5|12|13|15|20:21(qc=5)
REM Li 1|1.3|8|9|10|10U:20(qc=5)
REM Fe 3|2.2|2.0|1.0|8|9|10|40:41:32(qc=5)
REM F 2|1.6|10|12|13|20:21(qc=5)
REM 
CELL 1.54180    6.53931    6.53931    6.14086  114.06014  114.06014   91.16578
LATT -1
SFAC Li O  F  S  Fe 
Li     1  0.0321190000000 -0.3689000000000  0.1465190000000 1.0   0.03
Li     1  0.3689000000000 -0.0321190000000 -0.1465190000000 1.0   0.03
O      2  0.4137980000000  0.2576030000000 -0.1734590000000 1.0  -0.01
O      2  0.2500440000000  0.0819570000000  0.1212100000000 1.0  -0.02
O      2 -0.1249490000000  0.0853260000000 -0.2087380000000 1.0  -0.08
O      2  0.3714380000000  0.5805970000000  0.1834760000000 1.0  -0.04
O      2 -0.2576030000000 -0.4137980000000  0.1734590000000 1.0  -0.01
O      2 -0.0819570000000 -0.2500440000000 -0.1212100000000 1.0  -0.02
O      2 -0.0853260000000  0.1249490000000  0.2087380000000 1.0  -0.08
O      2 -0.5805970000000 -0.3714380000000 -0.1834760000000 1.0  -0.04
F      3  0.1420960000000 -0.1420960000000 -0.5000000000000 1.0  -0.08
F      3 -0.2928700000000  0.2928700000000  0.5000000000000 1.0  -0.16
S      4 -0.0048030000000  0.0048030000000  0.0000000000000 1.0  -0.01
S      4  0.4912310000000 -0.4912310000000  0.0000000000000 1.0  -0.00
Fe     5  0.5058640000000 -0.5058640000000  0.5000000000000 1.0  -3.73
Fe     5 -0.0739640000000  0.0739640000000 -0.5000000000000 1.0  -3.76
END
