TITL 2LiFeSO4F-200818-232109-83e0c3 -0.0305 201.933785 -7.56402739E+003 4.00024 4.25610 16 (Pm) n - 1
REM
REM Run started: Wed, 19 Aug 2020 00:52:52 +0100 in /lustre/scratch/uccabz1/launch_tmp/launcher_2020-08-18-22-21-02-667937
REM CASTEP 20.1 from code version af48c487+ pr-geom-scf-spinfix Tue Jun 2 15:39:59 2020 +0100
REM Functional Perdew Burke Ernzerhof Relativity Koelling-Harmon Dispersion off
REM Cut-off 340.0000 eV Grid scale 1.7500 Gmax 16.5316 1/A FBSC none
REM MP grid 4 3 2 Offset 0.000 0.000 0.000 No. kpts 6 Spacing 0.07
REM Total runtime: 5741.73 s
REM Overall efficiency: 73.1538 %
REM
REM 2LiFeSO4F.cell (6abdf011d38848201efe8211ff585b1c)
REM
REM compiler GCC version 4.9.2
REM options -cpp -iprefix /lustre/shared/ucl/apps/gcc/4.9.2/bin/../lib/gcc/x86_64-unknown-linux-gnu/4.9.2/ -mtune=corei7 -march=x86-64 -g -Og
REM COMMAND_LINE
REM seed 1153677223 -1566436193 1452697191 -1592479003 1158108686 702847365 664970055 -238581764 1232244659 -1417210982 1898674556 -115360241
REM
REM S 3|1.8|5|6|7|30:31:32(qc=5)
REM O 2|1.5|12|13|15|20:21(qc=5)
REM Li 1|1.3|8|9|10|10U:20(qc=5)
REM Fe 3|2.2|2.0|1.0|8|9|10|40:41:32(qc=5)
REM F 2|1.6|10|12|13|20:21(qc=5)
REM 
CELL 1.54180    4.74893    5.15216    8.27220   90.00000   90.00000   93.87997
LATT -1
SFAC Li O  F  S  Fe 
Li     1 -0.4057700000000 -0.1579100000000 -0.5000000000000 1.0  -0.00
Li     1  0.5656510000000 -0.5878590000000  0.0000000000000 1.0   0.02
O      2  0.3005590000000  0.6867070000000 -0.3117580000000 1.0   0.01
O      2 -0.1093950000000  0.5463210000000 -0.1678090000000 1.0  -0.02
O      2  0.2799480000000  0.2413620000000 -0.1946360000000 1.0  -0.01
O      2  0.3005590000000  0.6867070000000  0.3117580000000 1.0   0.01
O      2 -0.1093950000000  0.5463210000000  0.1678090000000 1.0  -0.02
O      2  0.2799480000000  0.2413620000000  0.1946360000000 1.0  -0.01
O      2  0.3086850000000 -0.1823740000000  0.0000000000000 1.0   0.33
O      2 -0.1320750000000  0.0127160000000  0.0000000000000 1.0   0.39
F      3 -0.1695890000000 -0.0266050000000 -0.3282850000000 1.0   0.05
F      3 -0.1695890000000 -0.0266050000000  0.3282850000000 1.0   0.05
S      4  0.0990050000000  0.4304250000000 -0.2949050000000 1.0   0.00
S      4  0.0990050000000  0.4304250000000  0.2949050000000 1.0   0.00
Fe     5  0.0760280000000 -0.1053400000000  0.1592870000000 1.0   1.59
Fe     5  0.0760280000000 -0.1053400000000 -0.1592870000000 1.0   1.59
END
