TITL 2LiFeSO4F-200804-050512-0bd904 0.0591 211.652445 -7.55933530E+003 7.98615 8.17284 16 (Cmc21) n - 1
REM
REM Run started: Tue, 04 Aug 2020 06:03:36 +0100 in /lustre/scratch/uccabz1/launch_tmp/launcher_2020-08-04-04-05-11-025501
REM CASTEP 20.1 from code version af48c487+ pr-geom-scf-spinfix Tue Jun 2 15:39:59 2020 +0100
REM Functional Perdew Burke Ernzerhof Relativity Koelling-Harmon Dispersion off
REM Cut-off 340.0000 eV Grid scale 1.7500 Gmax 16.5316 1/A FBSC none
REM MP grid 3 3 3 Offset 0.000 0.000 0.000 No. kpts 8 Spacing 0.07
REM Total runtime: 3571.06 s
REM Overall efficiency: 85.8571 %
REM
REM 2LiFeSO4F.cell (6abdf011d38848201efe8211ff585b1c)
REM
REM compiler GCC version 4.9.2
REM options -cpp -iprefix /lustre/shared/ucl/apps/gcc/4.9.2/bin/../lib/gcc/x86_64-unknown-linux-gnu/4.9.2/ -mtune=corei7 -march=x86-64 -g -Og
REM COMMAND_LINE
REM seed -31440970 -892824765 -2033818480 -995939107 -1465010740 -897087849 1438482401 -2012140201 69278078 634140196 -1359558682 635636000
REM
REM S 3|1.8|5|6|7|30:31:32(qc=5)
REM O 2|1.5|12|13|15|20:21(qc=5)
REM Li 1|1.3|8|9|10|10U:20(qc=5)
REM Fe 3|2.2|2.0|1.0|8|9|10|40:41:32(qc=5)
REM F 2|1.6|10|12|13|20:21(qc=5)
REM 
CELL 1.54180    5.79729    5.15431    7.53745  109.99349   90.00000   90.00000
LATT -1
SFAC Li O  F  S  Fe 
Li     1  0.1433560000000  0.3856380000000 -0.2287240000000 1.0   0.01
Li     1 -0.3566440000000 -0.3856380000000  0.2287240000000 1.0   0.01
O      2  0.2032780000000 -0.0442900000000  0.4742100000000 1.0   0.11
O      2 -0.0514990000000 -0.1719240000000  0.2174480000000 1.0   0.16
O      2 -0.2967220000000  0.0442900000000 -0.4742100000000 1.0   0.11
O      2 -0.5514990000000  0.1719240000000 -0.2174480000000 1.0   0.16
O      2 -0.2967220000000 -0.5184990000000 -0.4742100000000 1.0   0.11
O      2 -0.5514990000000 -0.3893720000000 -0.2174480000000 1.0   0.16
O      2  0.2032780000000  0.5184990000000  0.4742100000000 1.0   0.11
O      2 -0.0514990000000  0.3893720000000  0.2174480000000 1.0   0.16
F      3  0.0589230000000 -0.0899330000000 -0.1798650000000 1.0   0.29
F      3 -0.4410770000000  0.0899330000000  0.1798650000000 1.0   0.29
S      4 -0.3605950000000  0.3505110000000 -0.2989780000000 1.0   0.02
S      4  0.1394050000000 -0.3505110000000  0.2989780000000 1.0   0.02
Fe     5 -0.1831930000000  0.1708900000000  0.3417800000000 1.0   3.13
Fe     5  0.3168070000000 -0.1708900000000 -0.3417800000000 1.0   3.13
END
