TITL 2LiFeSO4F-200804-020609-70c782 0.0026 189.210219 -7.56540563E+003 8.00000 8.13177 16 (P-1) n - 1
REM
REM Run started: Tue, 04 Aug 2020 06:18:29 +0100 in /lustre/scratch/uccabz1/launch_tmp/launcher_2020-08-04-01-06-06-171188
REM CASTEP 20.1 from code version af48c487+ pr-geom-scf-spinfix Tue Jun 2 15:39:59 2020 +0100
REM Functional Perdew Burke Ernzerhof Relativity Koelling-Harmon Dispersion off
REM Cut-off 340.0000 eV Grid scale 1.7500 Gmax 16.5316 1/A FBSC none
REM MP grid 4 3 2 Offset 0.000 0.000 0.000 No. kpts 12 Spacing 0.07
REM Total runtime: 16953.7 s
REM Overall efficiency: 75.5 %
REM
REM 2LiFeSO4F.cell (6abdf011d38848201efe8211ff585b1c)
REM
REM compiler GCC version 4.9.2
REM options -cpp -iprefix /lustre/shared/ucl/apps/gcc/4.9.2/bin/../lib/gcc/x86_64-unknown-linux-gnu/4.9.2/ -mtune=corei7 -march=x86-64 -g -Og
REM COMMAND_LINE
REM seed -2043813658 1645905961 818557283 -959423750 1548358354 -330538518 529148615 -134859983 -355460634 1081466138 -1605928815 1619220276
REM
REM S 3|1.8|5|6|7|30:31:32(qc=5)
REM O 2|1.5|12|13|15|20:21(qc=5)
REM Li 1|1.3|8|9|10|10U:20(qc=5)
REM Fe 3|2.2|2.0|1.0|8|9|10|40:41:32(qc=5)
REM F 2|1.6|10|12|13|20:21(qc=5)
REM 
CELL 1.54180    4.16496    5.13357    9.56549   94.13438   91.12583  111.76418
LATT -1
SFAC Li O  F  S  Fe 
Li     1  0.2148140000000  0.0023680000000  0.1691170000000 1.0  -0.04
Li     1 -0.2148140000000 -0.0023680000000 -0.1691170000000 1.0  -0.04
O      2  0.0545380000000  0.2202520000000  0.3110370000000 1.0   0.04
O      2 -0.3469600000000  0.3041490000000  0.1482460000000 1.0   0.06
O      2  0.2491210000000  0.6350580000000  0.1703950000000 1.0   0.04
O      2 -0.1340400000000  0.6193550000000  0.3647860000000 1.0   0.04
O      2 -0.0545380000000 -0.2202520000000 -0.3110370000000 1.0   0.04
O      2  0.3469600000000 -0.3041490000000 -0.1482460000000 1.0   0.06
O      2 -0.2491210000000 -0.6350580000000 -0.1703950000000 1.0   0.04
O      2  0.1340400000000 -0.6193550000000 -0.3647860000000 1.0   0.04
F      3  0.0000000000000  0.0000000000000  0.0000000000000 1.0   0.04
F      3 -0.5000000000000  0.0000000000000 -0.5000000000000 1.0   0.13
S      4 -0.0419970000000  0.4475060000000  0.2540060000000 1.0   0.02
S      4  0.0419970000000 -0.4475060000000 -0.2540060000000 1.0   0.02
Fe     5  0.5000000000000 -0.5000000000000  0.0000000000000 1.0   3.68
Fe     5  0.0000000000000  0.0000000000000  0.5000000000000 1.0   3.83
END
