TITL 2LiFeSO4F-200818-230951-7477ec 0.0408 216.472127 -7.55842414E+003 9.95395 9.98776 16 (P-1) n - 1
REM
REM Run started: Wed, 19 Aug 2020 00:44:51 +0100 in /lustre/scratch/uccabz1/launch_tmp/launcher_2020-08-18-22-09-49-122631
REM CASTEP 20.1 from code version af48c487+ pr-geom-scf-spinfix Tue Jun 2 15:39:59 2020 +0100
REM Functional Perdew Burke Ernzerhof Relativity Koelling-Harmon Dispersion off
REM Cut-off 340.0000 eV Grid scale 1.7500 Gmax 16.5316 1/A FBSC none
REM MP grid 4 3 3 Offset 0.000 0.000 0.000 No. kpts 18 Spacing 0.07
REM Total runtime: 6145.52 s
REM Overall efficiency: 95.5714 %
REM
REM 2LiFeSO4F.cell (6abdf011d38848201efe8211ff585b1c)
REM
REM compiler GCC version 4.9.2
REM options -cpp -iprefix /lustre/shared/ucl/apps/gcc/4.9.2/bin/../lib/gcc/x86_64-unknown-linux-gnu/4.9.2/ -mtune=corei7 -march=x86-64 -g -Og
REM COMMAND_LINE
REM seed -79310029 1352706947 -1488010150 -737825287 56097455 -244080801 956775531 589173677 566383600 -1559159288 1071575215 165382413
REM
REM S 3|1.8|5|6|7|30:31:32(qc=5)
REM O 2|1.5|12|13|15|20:21(qc=5)
REM Li 1|1.3|8|9|10|10U:20(qc=5)
REM Fe 3|2.2|2.0|1.0|8|9|10|40:41:32(qc=5)
REM F 2|1.6|10|12|13|20:21(qc=5)
REM 
CELL 1.54180    4.71840    7.51687    6.94106  109.62977  101.47061  102.35802
LATT -1
SFAC Li O  F  S  Fe 
Li     1 -0.2133130000000 -0.6487390000000 -0.4029310000000 1.0  -0.03
Li     1  0.2133130000000  0.6487390000000  0.4029310000000 1.0  -0.03
O      2  0.1540640000000  0.3417520000000 -0.1647600000000 1.0   0.29
O      2 -0.3773520000000  0.5164020000000 -0.2078250000000 1.0   0.28
O      2 -0.3781730000000  0.3003330000000 -0.0175260000000 1.0   0.39
O      2 -0.7430600000000 -0.0692080000000 -0.4135990000000 1.0   0.01
O      2 -0.1540640000000 -0.3417520000000  0.1647600000000 1.0   0.29
O      2  0.3773520000000 -0.5164020000000  0.2078250000000 1.0   0.28
O      2  0.3781730000000 -0.3003330000000  0.0175260000000 1.0   0.39
O      2  0.7430600000000  0.0692080000000  0.4135990000000 1.0   0.01
F      3  0.0000000000000 -0.5000000000000 -0.5000000000000 1.0   0.04
F      3  0.0000000000000  0.0000000000000  0.0000000000000 1.0   0.16
S      4  0.5000000000000  0.5000000000000  0.0000000000000 1.0  -0.00
S      4  0.0000000000000  0.0000000000000 -0.5000000000000 1.0   0.01
Fe     5  0.0017510000000  0.2755640000000  0.0526190000000 1.0   3.93
Fe     5 -0.0017510000000 -0.2755640000000 -0.0526190000000 1.0   3.93
END
