TITL 2LiFeSO4F-200818-191615-8e8007 -0.0081 234.222855 -7.56578814E+003 8.00000 8.09479 16 (P21) n - 1
REM
REM Run started: Tue, 18 Aug 2020 20:52:29 +0100 in /scratch/scratch/uccabz1/launch_tmp/launcher_2020-08-18-18-16-11-958750
REM CASTEP 19.11| from code version Version unavailable
REM Functional Perdew Burke Ernzerhof Relativity Koelling-Harmon Dispersion off
REM Cut-off 340.0000 eV Grid scale 1.7500 Gmax 16.5316 1/A FBSC none
REM MP grid 4 3 2 Offset 0.000 0.000 0.000 No. kpts 8 Spacing 0.07
REM Total runtime: 5827.28 s
REM Overall efficiency: 90.6667 %
REM
REM 2LiFeSO4F.cell (6abdf011d38848201efe8211ff585b1c)
REM
REM compiler GCC version 4.9.2
REM options -cpp -iprefix /scratch/UCL/applications/gcc/4.9.2/bin/../lib/gcc/x86_64-unknown-linux-gnu/4.9.2/ -mtune=corei7 -march=x86-64 -g -O2
REM COMMAND_LINE
REM seed -508844369 -91930753 -99060022 542156562 2092318323 990262210 543298823 1573898164 -1834070650 1839400783 -2037880837 725689614
REM
REM S 3|1.8|5|6|7|30:31:32(qc=5)
REM O 2|1.5|12|13|15|20:21(qc=5)
REM Li 1|1.3|8|9|10|10U:20(qc=5)
REM Fe 3|2.2|2.0|1.0|8|9|10|40:41:32(qc=5)
REM F 2|1.6|10|12|13|20:21(qc=5)
REM 
CELL 1.54180    5.04109    5.93109    8.45817   90.00000  112.15348   90.00000
LATT -1
SFAC Li O  F  S  Fe 
Li     1 -0.3441430000000 -0.0773050000000 -0.2071820000000 1.0  -0.02
Li     1  0.3441430000000  0.4226950000000  0.2071820000000 1.0  -0.02
O      2 -0.0395620000000 -0.0141630000000  0.2453220000000 1.0   0.07
O      2  0.0431400000000 -0.4175330000000  0.2489870000000 1.0   0.03
O      2 -0.3115430000000 -0.2429240000000 -0.0114550000000 1.0   0.01
O      2 -0.4174750000000 -0.2810820000000  0.2469180000000 1.0   0.06
O      2  0.0395620000000  0.4858370000000 -0.2453220000000 1.0   0.07
O      2 -0.0431400000000  0.0824670000000 -0.2489870000000 1.0   0.03
O      2  0.3115430000000  0.2570760000000  0.0114550000000 1.0   0.01
O      2  0.4174750000000  0.2189180000000 -0.2469180000000 1.0   0.06
F      3 -0.5149490000000  0.2407330000000  0.4111170000000 1.0   0.10
F      3  0.5149490000000 -0.2592670000000 -0.4111170000000 1.0   0.10
S      4 -0.1815930000000 -0.2399240000000  0.1767800000000 1.0   0.01
S      4  0.1815930000000  0.2600760000000 -0.1767800000000 1.0   0.01
Fe     5 -0.3798920000000  0.4078700000000 -0.3634910000000 1.0   3.74
Fe     5  0.3798920000000 -0.0921300000000  0.3634910000000 1.0   3.74
END
