TITL 2LiFeSO4F-200819-011951-3e19cc -0.0228 209.370778 -7.56450802E+003 8.00000 8.24957 16 (I41md) n - 1
REM
REM Run started: Wed, 19 Aug 2020 01:52:34 +0100 in /lustre/scratch/uccabz1/launch_tmp/launcher_2020-08-19-00-19-49-231479
REM CASTEP 20.1 from code version af48c487+ pr-geom-scf-spinfix Tue Jun 2 15:39:59 2020 +0100
REM Functional Perdew Burke Ernzerhof Relativity Koelling-Harmon Dispersion off
REM Cut-off 340.0000 eV Grid scale 1.7500 Gmax 16.5316 1/A FBSC none
REM MP grid 3 3 4 Offset 0.000 0.000 0.000 No. kpts 12 Spacing 0.07
REM Total runtime: 2793.66 s
REM Overall efficiency: 68.1667 %
REM
REM 2LiFeSO4F.cell (6abdf011d38848201efe8211ff585b1c)
REM
REM compiler GCC version 4.9.2
REM options -cpp -iprefix /lustre/shared/ucl/apps/gcc/4.9.2/bin/../lib/gcc/x86_64-unknown-linux-gnu/4.9.2/ -mtune=corei7 -march=x86-64 -g -Og
REM COMMAND_LINE
REM seed -1330117106 216968083 -2092092988 -562540734 643379460 -1563252215 -138573181 -300494579 569147855 -1760163415 -1858256533 1794442902
REM
REM S 3|1.8|5|6|7|30:31:32(qc=5)
REM O 2|1.5|12|13|15|20:21(qc=5)
REM Li 1|1.3|8|9|10|10U:20(qc=5)
REM Fe 3|2.2|2.0|1.0|8|9|10|40:41:32(qc=5)
REM F 2|1.6|10|12|13|20:21(qc=5)
REM 
CELL 1.54180    6.71349    6.71349    6.64190  120.35716  120.35716   90.00000
LATT -1
SFAC Li O  F  S  Fe 
Li     1 -0.2806790000000 -0.2806790000000  0.4386410000000 1.0  -0.03
Li     1 -0.0306790000000  0.4693210000000 -0.0613590000000 1.0  -0.03
O      2  0.3071900000000  0.1355160000000 -0.3767990000000 1.0   0.08
O      2  0.6908350000000  0.5054210000000  0.0198590000000 1.0   0.00
O      2  0.3160120000000 -0.5123150000000 -0.3767990000000 1.0   0.08
O      2  0.3290240000000 -0.4855610000000  0.0198590000000 1.0   0.00
O      2  0.3855160000000  0.0660120000000  0.1232010000000 1.0   0.08
O      2  0.7554210000000  0.0790240000000  0.5198590000000 1.0   0.00
O      2 -0.2623150000000  0.0571900000000  0.1232010000000 1.0   0.08
O      2 -0.2355610000000  0.4408350000000  0.5198590000000 1.0   0.00
F      3 -0.0859750000000 -0.0859750000000 -0.1719500000000 1.0   0.14
F      3  0.1640250000000 -0.3359750000000  0.3280500000000 1.0   0.14
S      4 -0.3313210000000  0.1686790000000  0.3373590000000 1.0   0.00
S      4  0.4186790000000  0.4186790000000 -0.1626410000000 1.0   0.00
Fe     5  0.1133990000000  0.1133990000000  0.2267980000000 1.0   3.72
Fe     5  0.3633990000000 -0.1366010000000 -0.2732020000000 1.0   3.72
END
