TITL 2LiFeSO4F-200818-181728-2c4caf 0.0464 203.567730 -7.56610285E+003 8.00000 8.08012 16 (Cc) n - 1
REM
REM Run started: Tue, 18 Aug 2020 22:06:27 +0100 in /scratch/scratch/uccabz1/launch_tmp/launcher_2020-08-18-19-51-27-660117
REM CASTEP 19.11| from code version Version unavailable
REM Functional Perdew Burke Ernzerhof Relativity Koelling-Harmon Dispersion off
REM Cut-off 340.0000 eV Grid scale 1.7500 Gmax 16.5316 1/A FBSC none
REM MP grid 4 3 3 Offset 0.000 0.000 0.000 No. kpts 12 Spacing 0.07
REM Total runtime: 4558 s
REM Overall efficiency: 92 %
REM
REM
REM
REM compiler GCC version 4.9.2
REM options -cpp -iprefix /scratch/UCL/applications/gcc/4.9.2/bin/../lib/gcc/x86_64-unknown-linux-gnu/4.9.2/ -mtune=corei7 -march=x86-64 -g -O2
REM COMMAND_LINE
REM seed 1205582561 -1451716760 -887282300 989178763 -522820603 1917977459 -1777205725 -80009901 -873117376 -264798248 -909299882 777951759
REM
REM S 3|1.8|5|6|7|30:31:32(qc=5)
REM O 2|1.5|12|13|15|20:21(qc=5)
REM Li 1|1.3|8|9|10|10U:20(qc=5)
REM Fe 3|2.2|2.0|1.0|8|9|10|40:41:32(qc=5)
REM F 2|1.6|10|12|13|20:21(qc=5)
REM 
CELL 1.54180    5.22594    7.98719    7.98719  132.45241  103.07998  103.07998
LATT -1
SFAC Li O  F  S  Fe 
Li     1 -0.2671810000000 -0.1411250000000 -0.2118450000000 1.0  -0.01
Li     1  0.2328190000000 -0.2118450000000 -0.1411250000000 1.0  -0.01
O      2  0.0910970000000  0.1972440000000  0.0076150000000 1.0   0.01
O      2  0.4639880000000  0.4004480000000 -0.0267730000000 1.0   0.10
O      2  0.6118350000000  0.5984530000000  0.4103290000000 1.0   0.02
O      2  0.2277210000000  0.6398350000000  0.2210320000000 1.0   0.09
O      2 -0.4089030000000  0.0076150000000  0.1972440000000 1.0   0.01
O      2 -0.0360120000000 -0.0267730000000  0.4004480000000 1.0   0.10
O      2  0.1118350000000  0.4103290000000  0.5984530000000 1.0   0.02
O      2 -0.2722790000000  0.2210320000000  0.6398350000000 1.0   0.09
F      3 -0.6031080000000 -0.0973190000000 -0.2529930000000 1.0   0.08
F      3 -0.1031080000000 -0.2529930000000 -0.0973190000000 1.0   0.08
S      4  0.3482950000000  0.4546590000000  0.1595730000000 1.0   0.01
S      4 -0.1517050000000  0.1595730000000  0.4546590000000 1.0   0.01
Fe     5 -0.1524170000000 -0.3980650000000  0.0220160000000 1.0   3.70
Fe     5  0.3475830000000  0.0220160000000 -0.3980650000000 1.0   3.70
END
