TITL 2LiFeSO4F-200804-042036-7ace2d -0.0675 165.682338 -7.55553136E+003 7.99593 8.42182 16 (P21/c) n - 1
REM
REM Run started: Tue, 04 Aug 2020 04:39:07 +0100 in /lustre/scratch/uccabz1/launch_tmp/launcher_2020-08-04-03-20-34-505949
REM CASTEP 20.1 from code version af48c487+ pr-geom-scf-spinfix Tue Jun 2 15:39:59 2020 +0100
REM Functional Perdew Burke Ernzerhof Relativity Koelling-Harmon Dispersion off
REM Cut-off 340.0000 eV Grid scale 1.7500 Gmax 16.5316 1/A FBSC none
REM MP grid 3 3 3 Offset 0.000 0.000 0.000 No. kpts 10 Spacing 0.07
REM Total runtime: 1220.54 s
REM Overall efficiency: 89.8 %
REM
REM 2LiFeSO4F.cell (6abdf011d38848201efe8211ff585b1c)
REM
REM compiler GCC version 4.9.2
REM options -cpp -iprefix /lustre/shared/ucl/apps/gcc/4.9.2/bin/../lib/gcc/x86_64-unknown-linux-gnu/4.9.2/ -mtune=corei7 -march=x86-64 -g -Og
REM COMMAND_LINE
REM seed 361010915 1107717620 503324818 810448116 329203314 -1518388805 761843298 -758362649 305700230 31632565 -1921599670 1509829502
REM
REM S 3|1.8|5|6|7|30:31:32(qc=5)
REM O 2|1.5|12|13|15|20:21(qc=5)
REM Li 1|1.3|8|9|10|10U:20(qc=5)
REM Fe 3|2.2|2.0|1.0|8|9|10|40:41:32(qc=5)
REM F 2|1.6|10|12|13|20:21(qc=5)
REM 
CELL 1.54180    5.60349    5.23505    5.78882   90.00000  102.66271   90.00000
LATT -1
SFAC Li O  F  S  Fe 
Li     1  0.0000000000000 -0.0000000000000  0.0000000000000 1.0  -0.02
Li     1 -0.5000000000000  0.5000000000000  0.0000000000000 1.0  -0.02
O      2  0.4008880000000  0.1731190000000 -0.2221940000000 1.0   0.06
O      2  0.1579870000000  0.6635820000000 -0.1564450000000 1.0   0.05
O      2  0.0991120000000 -0.3268810000000  0.2221940000000 1.0   0.06
O      2  0.3420130000000  0.1635820000000  0.1564450000000 1.0   0.05
O      2 -0.4008880000000 -0.1731190000000  0.2221940000000 1.0   0.06
O      2 -0.1579870000000 -0.6635820000000  0.1564450000000 1.0   0.05
O      2 -0.0991120000000  0.3268810000000 -0.2221940000000 1.0   0.06
O      2 -0.3420130000000 -0.1635820000000 -0.1564450000000 1.0   0.05
F      3  0.0000000000000 -0.0000000000000 -0.5000000000000 1.0   0.10
F      3 -0.5000000000000  0.5000000000000 -0.5000000000000 1.0   0.10
S      4 -0.5000000000000 -0.0000000000000  0.0000000000000 1.0  -0.10
S      4  0.0000000000000 -0.5000000000000  0.0000000000000 1.0  -0.10
Fe     5  0.5000000000000 -0.0000000000000 -0.5000000000000 1.0   3.80
Fe     5  0.0000000000000 -0.5000000000000 -0.5000000000000 1.0   3.80
END
