TITL 2LiFeSO4F-200804-050644-2460ac -0.0475 199.860336 -7.56538222E+003 8.00000 8.10960 16 (P21) n - 1
REM
REM Run started: Tue, 04 Aug 2020 06:02:36 +0100 in /lustre/scratch/uccabz1/launch_tmp/launcher_2020-08-04-04-06-42-293224
REM CASTEP 20.1 from code version af48c487+ pr-geom-scf-spinfix Tue Jun 2 15:39:59 2020 +0100
REM Functional Perdew Burke Ernzerhof Relativity Koelling-Harmon Dispersion off
REM Cut-off 340.0000 eV Grid scale 1.7500 Gmax 16.5316 1/A FBSC none
REM MP grid 3 3 3 Offset 0.000 0.000 0.000 No. kpts 10 Spacing 0.07
REM Total runtime: 3903.19 s
REM Overall efficiency: 93.8571 %
REM
REM 2LiFeSO4F.cell (6abdf011d38848201efe8211ff585b1c)
REM
REM compiler GCC version 4.9.2
REM options -cpp -iprefix /lustre/shared/ucl/apps/gcc/4.9.2/bin/../lib/gcc/x86_64-unknown-linux-gnu/4.9.2/ -mtune=corei7 -march=x86-64 -g -Og
REM COMMAND_LINE
REM seed 115016750 2113762788 -595807344 -381034058 -1053111613 377041164 719999897 -901659753 -608820462 1540967553 1774542785 289607862
REM
REM S 3|1.8|5|6|7|30:31:32(qc=5)
REM O 2|1.5|12|13|15|20:21(qc=5)
REM Li 1|1.3|8|9|10|10U:20(qc=5)
REM Fe 3|2.2|2.0|1.0|8|9|10|40:41:32(qc=5)
REM F 2|1.6|10|12|13|20:21(qc=5)
REM 
CELL 1.54180    4.93905    6.16309    6.67514   90.00000  100.38653   90.00000
LATT -1
SFAC Li O  F  S  Fe 
Li     1 -0.5889260000000 -0.3237320000000  0.4581450000000 1.0  -0.01
Li     1  0.5889260000000  0.1762680000000 -0.4581450000000 1.0  -0.01
O      2  0.1243950000000  0.4943260000000 -0.4389570000000 1.0   0.02
O      2  0.2622430000000  0.2376180000000 -0.1546890000000 1.0   0.07
O      2 -0.2000760000000  0.4148470000000 -0.2107590000000 1.0   0.04
O      2  0.2381370000000  0.6105070000000 -0.0779790000000 1.0   0.08
O      2 -0.1243950000000 -0.0056740000000  0.4389570000000 1.0   0.02
O      2 -0.2622430000000 -0.2623820000000  0.1546890000000 1.0   0.07
O      2  0.2000760000000 -0.0851530000000  0.2107590000000 1.0   0.04
O      2 -0.2381370000000  0.1105070000000  0.0779790000000 1.0   0.08
F      3 -0.5173620000000 -0.1003280000000 -0.3385650000000 1.0   0.08
F      3  0.5173620000000  0.3996720000000  0.3385650000000 1.0   0.08
S      4  0.0983440000000  0.4402420000000 -0.2288460000000 1.0   0.02
S      4 -0.0983440000000 -0.0597580000000  0.2288460000000 1.0   0.02
Fe     5 -0.3692550000000  0.4250880000000  0.0708850000000 1.0   3.71
Fe     5  0.3692550000000 -0.0749120000000 -0.0708850000000 1.0   3.71
END
