TITL 2LiFeSO4F-200804-032420-543aa9 -0.0171 206.342375 -7.56473336E+003 8.00000 8.12387 16 (Cc) n - 1
REM
REM Run started: Tue, 04 Aug 2020 04:10:48 +0100 in /lustre/scratch/uccabz1/launch_tmp/launcher_2020-08-04-02-23-28-972808
REM CASTEP 20.1 from code version af48c487+ pr-geom-scf-spinfix Tue Jun 2 15:39:59 2020 +0100
REM Functional Perdew Burke Ernzerhof Relativity Koelling-Harmon Dispersion off
REM Cut-off 340.0000 eV Grid scale 1.7500 Gmax 16.5316 1/A FBSC none
REM MP grid 3 3 2 Offset 0.000 0.000 0.000 No. kpts 8 Spacing 0.07
REM Total runtime: 3682.06 s
REM Overall efficiency: 93.6667 %
REM
REM 2LiFeSO4F.cell (6abdf011d38848201efe8211ff585b1c)
REM
REM compiler GCC version 4.9.2
REM options -cpp -iprefix /lustre/shared/ucl/apps/gcc/4.9.2/bin/../lib/gcc/x86_64-unknown-linux-gnu/4.9.2/ -mtune=corei7 -march=x86-64 -g -Og
REM COMMAND_LINE
REM seed 1634779720 306622994 -586177390 617090530 -52569247 1861060608 -159614816 322688109 -2000989060 -1687547495 -480625063 2053729982
REM
REM S 3|1.8|5|6|7|30:31:32(qc=5)
REM O 2|1.5|12|13|15|20:21(qc=5)
REM Li 1|1.3|8|9|10|10U:20(qc=5)
REM Fe 3|2.2|2.0|1.0|8|9|10|40:41:32(qc=5)
REM F 2|1.6|10|12|13|20:21(qc=5)
REM 
CELL 1.54180    4.87149    5.75042    7.92918   68.73933   88.34066   85.41966
LATT -1
SFAC Li O  F  S  Fe 
Li     1 -0.0531100000000 -0.4664480000000 -0.1477790000000 1.0  -0.01
Li     1  0.4468900000000  0.3857730000000  0.1477790000000 1.0  -0.01
O      2  0.2314440000000 -0.2424660000000 -0.3061310000000 1.0   0.05
O      2  0.5969110000000 -0.3165580000000 -0.0854160000000 1.0   0.01
O      2  0.3267490000000  0.1019380000000 -0.2012970000000 1.0   0.03
O      2  0.6533800000000 -0.0074690000000 -0.3965430000000 1.0   0.08
O      2 -0.2685560000000 -0.5485960000000  0.3061310000000 1.0   0.05
O      2  0.0969110000000 -0.4019740000000  0.0854160000000 1.0   0.01
O      2 -0.1732510000000 -0.0993580000000  0.2012960000000 1.0   0.03
O      2  0.1533800000000 -0.4040120000000  0.3965420000000 1.0   0.08
F      3  0.2732010000000  0.1306610000000  0.3222060000000 1.0   0.11
F      3 -0.2267990000000  0.4528670000000 -0.3222060000000 1.0   0.11
S      4  0.4495820000000 -0.1203410000000 -0.2393030000000 1.0   0.01
S      4 -0.0504180000000 -0.3596440000000  0.2393030000000 1.0   0.01
Fe     5  0.4873010000000  0.3875950000000 -0.4572460000000 1.0   3.72
Fe     5 -0.0126990000000 -0.0696510000000  0.4572460000000 1.0   3.72
END
