TITL 2LiFeSO4F-200819-021606-3324c6 0.0686 200.754183 -7.56379508E+003 8.00000 8.06537 16 (Pcc2) n - 1
REM
REM Run started: Wed, 19 Aug 2020 02:31:34 +0100 in /lustre/scratch/uccabz1/launch_tmp/launcher_2020-08-19-01-16-03-068083
REM CASTEP 20.1 from code version af48c487+ pr-geom-scf-spinfix Tue Jun 2 15:39:59 2020 +0100
REM Functional Perdew Burke Ernzerhof Relativity Koelling-Harmon Dispersion off
REM Cut-off 340.0000 eV Grid scale 1.7500 Gmax 16.5316 1/A FBSC none
REM MP grid 4 3 2 Offset 0.000 0.000 0.000 No. kpts 4 Spacing 0.07
REM Total runtime: 1066.24 s
REM Overall efficiency: 72.6 %
REM
REM 2LiFeSO4F.cell (6abdf011d38848201efe8211ff585b1c)
REM
REM compiler GCC version 4.9.2
REM options -cpp -iprefix /lustre/shared/ucl/apps/gcc/4.9.2/bin/../lib/gcc/x86_64-unknown-linux-gnu/4.9.2/ -mtune=corei7 -march=x86-64 -g -Og
REM COMMAND_LINE
REM seed -2094263364 815638313 1393288250 -214270439 863312955 1122451277 87275420 -1628585897 -960070160 228559800 -2075602530 -1961051445
REM
REM S 3|1.8|5|6|7|30:31:32(qc=5)
REM O 2|1.5|12|13|15|20:21(qc=5)
REM Li 1|1.3|8|9|10|10U:20(qc=5)
REM Fe 3|2.2|2.0|1.0|8|9|10|40:41:32(qc=5)
REM F 2|1.6|10|12|13|20:21(qc=5)
REM 
CELL 1.54180    3.93270    5.35610    9.53072   90.00000   90.00000   90.00000
LATT -1
SFAC Li O  F  S  Fe 
Li     1  0.0000000000000  0.5000000000000 -0.0996470000000 1.0  -0.02
Li     1  0.0000000000000 -0.5000000000000  0.4003530000000 1.0  -0.02
O      2 -0.2751780000000 -0.3427980000000 -0.2506290000000 1.0   0.01
O      2  0.3072940000000 -0.3257490000000 -0.4385740000000 1.0   0.05
O      2  0.2751780000000  0.3427980000000 -0.2506290000000 1.0   0.01
O      2 -0.3072940000000  0.3257490000000 -0.4385740000000 1.0   0.05
O      2  0.2751780000000 -0.3427980000000  0.2493710000000 1.0   0.01
O      2 -0.3072940000000 -0.3257490000000  0.0614260000000 1.0   0.05
O      2 -0.2751780000000  0.3427980000000  0.2493710000000 1.0   0.01
O      2  0.3072940000000  0.3257490000000  0.0614260000000 1.0   0.05
F      3  0.0000000000000 -0.0000000000000 -0.0781440000000 1.0   0.12
F      3  0.0000000000000 -0.0000000000000  0.4218560000000 1.0   0.12
S      4  0.5000000000000 -0.5000000000000  0.1610610000000 1.0   0.01
S      4  0.5000000000000 -0.5000000000000 -0.3389390000000 1.0   0.01
Fe     5 -0.5000000000000 -0.0000000000000 -0.0212340000000 1.0   3.77
Fe     5  0.5000000000000 -0.0000000000000  0.4787660000000 1.0   3.77
END
