TITL 2LiFeSO4F-200819-023039-970d0e 0.4863 257.105684 -7.56483148E+003 8.00000 8.16446 16 (P2) n - 1
REM
REM Run started: Wed, 19 Aug 2020 04:16:37 +0100 in /scratch/scratch/uccabz1/launch_tmp/launcher_2020-08-19-01-30-37-829379
REM CASTEP 19.11| from code version Version unavailable
REM Functional Perdew Burke Ernzerhof Relativity Koelling-Harmon Dispersion off
REM Cut-off 340.0000 eV Grid scale 1.7500 Gmax 16.5316 1/A FBSC none
REM MP grid 3 3 2 Offset 0.000 0.000 0.000 No. kpts 6 Spacing 0.07
REM Total runtime: 7167.05 s
REM Overall efficiency: 75.0833 %
REM
REM 2LiFeSO4F.cell (6abdf011d38848201efe8211ff585b1c)
REM
REM compiler GCC version 4.9.2
REM options -cpp -iprefix /scratch/UCL/applications/gcc/4.9.2/bin/../lib/gcc/x86_64-unknown-linux-gnu/4.9.2/ -mtune=corei7 -march=x86-64 -g -O2
REM COMMAND_LINE
REM seed -2037812780 -990615242 239985062 -1356529730 1168433553 -1787914807 1393727666 -1270142264 -318926281 -1064779231 1312195903 1560761962
REM
REM S 3|1.8|5|6|7|30:31:32(qc=5)
REM O 2|1.5|12|13|15|20:21(qc=5)
REM Li 1|1.3|8|9|10|10U:20(qc=5)
REM Fe 3|2.2|2.0|1.0|8|9|10|40:41:32(qc=5)
REM F 2|1.6|10|12|13|20:21(qc=5)
REM 
CELL 1.54180    5.12368    6.97135    7.22772   95.19628   90.00000   90.00000
LATT -1
SFAC Li O  F  S  Fe 
Li     1 -0.2589940000000  0.2514590000000 -0.3764710000000 1.0  -0.00
Li     1 -0.2589940000000 -0.2514590000000  0.3764710000000 1.0  -0.00
O      2 -0.6850800000000 -0.3226200000000 -0.1241380000000 1.0   0.11
O      2 -0.4667780000000 -0.2431890000000 -0.4090810000000 1.0   0.02
O      2 -0.3141860000000 -0.5130960000000 -0.2351530000000 1.0   0.01
O      2 -0.2536220000000 -0.1770370000000 -0.1071320000000 1.0   0.11
O      2 -0.6850800000000  0.3226200000000  0.1241380000000 1.0   0.11
O      2 -0.4667780000000  0.2431890000000  0.4090810000000 1.0   0.02
O      2 -0.3141860000000  0.5130960000000  0.2351530000000 1.0   0.01
O      2 -0.2536220000000  0.1770370000000  0.1071320000000 1.0   0.11
F      3  0.0288960000000 -0.1456160000000  0.2811120000000 1.0   0.14
F      3  0.0288960000000  0.1456160000000 -0.2811120000000 1.0   0.14
S      4 -0.4250760000000 -0.3174330000000 -0.2263120000000 1.0   0.01
S      4 -0.4250760000000  0.3174330000000  0.2263120000000 1.0   0.01
Fe     5  0.0712930000000 -0.1742940000000  0.0240670000000 1.0   3.60
Fe     5  0.0712930000000  0.1742940000000 -0.0240670000000 1.0   3.60
END
