TITL 2LiFeSO4F-200818-200834-759e6d 0.0183 187.136403 -7.56647500E+003 8.00000 8.15633 16 (Cc) n - 1
REM
REM Run started: Tue, 18 Aug 2020 21:56:24 +0100 in /lustre/scratch/uccabz1/launch_tmp/launcher_2020-08-18-19-07-42-922558
REM CASTEP 20.1 from code version af48c487+ pr-geom-scf-spinfix Tue Jun 2 15:39:59 2020 +0100
REM Functional Perdew Burke Ernzerhof Relativity Koelling-Harmon Dispersion off
REM Cut-off 340.0000 eV Grid scale 1.7500 Gmax 16.5316 1/A FBSC none
REM MP grid 3 3 3 Offset 0.000 0.000 0.000 No. kpts 10 Spacing 0.07
REM Total runtime: 6506.06 s
REM Overall efficiency: 91.1 %
REM
REM 2LiFeSO4F.cell (6abdf011d38848201efe8211ff585b1c)
REM
REM compiler GCC version 4.9.2
REM options -cpp -iprefix /lustre/shared/ucl/apps/gcc/4.9.2/bin/../lib/gcc/x86_64-unknown-linux-gnu/4.9.2/ -mtune=corei7 -march=x86-64 -g -Og
REM COMMAND_LINE
REM seed -1114901138 1847520926 -2121676412 850809568 -1874959296 9206870 2124645316 -181281267 1100034364 1573050980 -1256171387 -1597382873
REM
REM S 3|1.8|5|6|7|30:31:32(qc=5)
REM O 2|1.5|12|13|15|20:21(qc=5)
REM Li 1|1.3|8|9|10|10U:20(qc=5)
REM Fe 3|2.2|2.0|1.0|8|9|10|40:41:32(qc=5)
REM F 2|1.6|10|12|13|20:21(qc=5)
REM 
CELL 1.54180    5.37897    5.37897    7.51132  111.16145  111.16145   89.52345
LATT -1
SFAC Li O  F  S  Fe 
Li     1 -0.6435330000000  0.3426970000000 -0.2037490000000 1.0  -0.03
Li     1  0.3426970000000 -0.6435330000000 -0.7037490000000 1.0  -0.03
O      2 -0.3312890000000 -0.3477250000000 -0.0943760000000 1.0   0.04
O      2  0.0306400000000  0.0181630000000  0.1685600000000 1.0   0.04
O      2  0.1312610000000 -0.3479610000000 -0.0933840000000 1.0   0.05
O      2  0.0336520000000 -0.4438390000000  0.1696750000000 1.0   0.05
O      2 -0.3477250000000 -0.3312890000000  0.4056240000000 1.0   0.04
O      2  0.0181630000000  0.0306400000000  0.6685600000000 1.0   0.04
O      2 -0.3479610000000  0.1312610000000  0.4066160000000 1.0   0.05
O      2 -0.4438390000000  0.0336520000000  0.6696750000000 1.0   0.05
F      3 -0.5264160000000  0.2138220000000  0.0369990000000 1.0   0.09
F      3  0.2138220000000 -0.5264160000000 -0.4630010000000 1.0   0.09
S      4 -0.0337260000000 -0.2791380000000  0.0379030000000 1.0   0.02
S      4 -0.2791380000000 -0.0337260000000  0.5379030000000 1.0   0.02
Fe     5 -0.1574940000000  0.3448010000000  0.2881750000000 1.0   3.74
Fe     5  0.3448010000000 -0.1574940000000 -0.2118250000000 1.0   3.74
END
