TITL 2LiFeSO4F-200818-194643-05a08b 0.0551 288.869185 -7.56020845E+003 7.87628 8.05523 16 (Pm) n - 1
REM
REM Run started: Tue, 18 Aug 2020 21:55:38 +0100 in /lustre/scratch/uccabz1/launch_tmp/launcher_2020-08-18-18-46-38-076576
REM CASTEP 20.1 from code version af48c487+ pr-geom-scf-spinfix Tue Jun 2 15:39:59 2020 +0100
REM Functional Perdew Burke Ernzerhof Relativity Koelling-Harmon Dispersion off
REM Cut-off 340.0000 eV Grid scale 1.7500 Gmax 16.5316 1/A FBSC none
REM MP grid 4 3 2 Offset 0.000 0.000 0.000 No. kpts 6 Spacing 0.07
REM Total runtime: 8636.58 s
REM Overall efficiency: 75.4167 %
REM
REM 2LiFeSO4F.cell (6abdf011d38848201efe8211ff585b1c)
REM
REM compiler GCC version 4.9.2
REM options -cpp -iprefix /lustre/shared/ucl/apps/gcc/4.9.2/bin/../lib/gcc/x86_64-unknown-linux-gnu/4.9.2/ -mtune=corei7 -march=x86-64 -g -Og
REM COMMAND_LINE
REM seed -1974005692 -935052548 -1021767904 66389832 -1800148660 599305249 -205423109 1158447218 672654698 -1954965755 -1377791762 -1310705335
REM
REM S 3|1.8|5|6|7|30:31:32(qc=5)
REM O 2|1.5|12|13|15|20:21(qc=5)
REM Li 1|1.3|8|9|10|10U:20(qc=5)
REM Fe 3|2.2|2.0|1.0|8|9|10|40:41:32(qc=5)
REM F 2|1.6|10|12|13|20:21(qc=5)
REM 
CELL 1.54180    5.18131    7.02638   10.31149   90.00000   90.00000  129.69095
LATT -1
SFAC Li O  F  S  Fe 
Li     1  0.2271290000000  0.1940650000000  0.0000000000000 1.0   0.01
Li     1 -0.0002040000000  0.1973810000000  0.5000000000000 1.0  -0.00
O      2 -0.6548730000000 -0.4557680000000  0.1200540000000 1.0   0.00
O      2 -0.0281500000000 -0.2646090000000  0.3815950000000 1.0   0.12
O      2 -0.6228780000000 -0.7064280000000  0.3755450000000 1.0   0.36
O      2 -0.2984340000000  0.1185640000000  0.3542310000000 1.0   0.45
O      2 -0.6548730000000 -0.4557680000000 -0.1200540000000 1.0   0.00
O      2 -0.0281500000000 -0.2646090000000 -0.3815950000000 1.0   0.12
O      2 -0.6228780000000 -0.7064280000000 -0.3755450000000 1.0   0.36
O      2 -0.2984340000000  0.1185640000000 -0.3542310000000 1.0   0.45
F      3  0.1963730000000  0.0184930000000  0.1348650000000 1.0   0.10
F      3  0.1963730000000  0.0184930000000 -0.1348650000000 1.0   0.10
S      4 -0.5673290000000 -0.3105810000000  0.0000000000000 1.0   0.00
S      4 -0.1334750000000  0.5720380000000  0.5000000000000 1.0   0.15
Fe     5  0.3576390000000  0.0690120000000 -0.3062690000000 1.0   2.83
Fe     5  0.3576390000000  0.0690120000000  0.3062690000000 1.0   2.83
END
