TITL 2LiFeSO4F-200819-001118-52e55a 0.0227 231.313212 -7.56066048E+003 7.99973 8.20469 16 (Pmc21) n - 1
REM
REM Run started: Wed, 19 Aug 2020 02:34:16 +0100 in /scratch/scratch/uccabz1/launch_tmp/launcher_2020-08-18-23-11-14-688117
REM CASTEP 19.11| from code version Version unavailable
REM Functional Perdew Burke Ernzerhof Relativity Koelling-Harmon Dispersion off
REM Cut-off 340.0000 eV Grid scale 1.7500 Gmax 16.5316 1/A FBSC none
REM MP grid 3 3 2 Offset 0.000 0.000 0.000 No. kpts 4 Spacing 0.07
REM Total runtime: 8639.24 s
REM Overall efficiency: 82.5 %
REM
REM 2LiFeSO4F.cell (6abdf011d38848201efe8211ff585b1c)
REM
REM compiler GCC version 4.9.2
REM options -cpp -iprefix /scratch/UCL/applications/gcc/4.9.2/bin/../lib/gcc/x86_64-unknown-linux-gnu/4.9.2/ -mtune=corei7 -march=x86-64 -g -O2
REM COMMAND_LINE
REM seed -1493734266 -56449327 1525765937 2033310061 -754947750 2023304294 425561061 243659756 964078237 1679462366 -1102787566 181359452
REM
REM S 3|1.8|5|6|7|30:31:32(qc=5)
REM O 2|1.5|12|13|15|20:21(qc=5)
REM Li 1|1.3|8|9|10|10U:20(qc=5)
REM Fe 3|2.2|2.0|1.0|8|9|10|40:41:32(qc=5)
REM F 2|1.6|10|12|13|20:21(qc=5)
REM 
CELL 1.54180    5.63668    5.66063    7.24957   90.00000   90.00000   90.00000
LATT -1
SFAC Li O  F  S  Fe 
Li     1 -0.0000000000000  0.1121900000000  0.1135800000000 1.0  -0.00
Li     1  0.0000000000000 -0.1121900000000 -0.3864200000000 1.0  -0.00
O      2 -0.2218820000000 -0.1600710000000  0.1500440000000 1.0   0.43
O      2 -0.2810960000000  0.3259330000000  0.2670650000000 1.0   0.02
O      2  0.2218820000000  0.1600710000000 -0.3499560000000 1.0   0.43
O      2  0.2810960000000 -0.3259330000000 -0.2329350000000 1.0   0.02
O      2 -0.2218820000000  0.1600710000000 -0.3499560000000 1.0   0.43
O      2 -0.2810960000000 -0.3259330000000 -0.2329350000000 1.0   0.02
O      2  0.2218820000000 -0.1600710000000  0.1500440000000 1.0   0.43
O      2  0.2810960000000  0.3259330000000  0.2670650000000 1.0   0.02
F      3  0.0000000000000  0.3896810000000 -0.0231960000000 1.0   0.12
F      3  0.0000000000000 -0.3896810000000  0.4768040000000 1.0   0.12
S      4 -0.5000000000000 -0.2052950000000 -0.1701080000000 1.0   0.02
S      4 -0.5000000000000  0.2052950000000  0.3298920000000 1.0   0.02
Fe     5  0.0000000000000  0.3525680000000 -0.3107210000000 1.0   2.97
Fe     5  0.0000000000000 -0.3525680000000  0.1892790000000 1.0   2.97
END
