TITL 2LiFeSO4F-200819-000810-4cc862 0.0046 187.523979 -7.56415408E+003 8.00000 8.12823 16 (Pccm) n - 1
REM
REM Run started: Wed, 19 Aug 2020 00:34:23 +0100 in /scratch/scratch/uccabz1/launch_tmp/launcher_2020-08-18-23-08-08-710800
REM CASTEP 19.11| from code version Version unavailable
REM Functional Perdew Burke Ernzerhof Relativity Koelling-Harmon Dispersion off
REM Cut-off 340.0000 eV Grid scale 1.7500 Gmax 16.5316 1/A FBSC none
REM MP grid 4 4 2 Offset 0.000 0.000 0.000 No. kpts 4 Spacing 0.07
REM Total runtime: 1765.17 s
REM Overall efficiency: 69.1111 %
REM
REM 2LiFeSO4F.cell (6abdf011d38848201efe8211ff585b1c)
REM
REM compiler GCC version 4.9.2
REM options -cpp -iprefix /scratch/UCL/applications/gcc/4.9.2/bin/../lib/gcc/x86_64-unknown-linux-gnu/4.9.2/ -mtune=corei7 -march=x86-64 -g -O2
REM COMMAND_LINE
REM seed 1120286048 743350390 1082201768 401939523 -1375619350 -1698985454 895279500 1593917804 547745403 -1156007201 -621581516 508392379
REM
REM S 3|1.8|5|6|7|30:31:32(qc=5)
REM O 2|1.5|12|13|15|20:21(qc=5)
REM Li 1|1.3|8|9|10|10U:20(qc=5)
REM Fe 3|2.2|2.0|1.0|8|9|10|40:41:32(qc=5)
REM F 2|1.6|10|12|13|20:21(qc=5)
REM 
CELL 1.54180    4.24579    4.65286    9.49245   90.00000   90.00000   90.00000
LATT -1
SFAC Li O  F  S  Fe 
Li     1  0.0000000000000  0.0000000000000  0.1592470000000 1.0  -0.05
Li     1  0.0000000000000  0.0000000000000 -0.3407530000000 1.0  -0.05
O      2  0.6972720000000 -0.1882520000000  0.5013510000000 1.0   0.04
O      2  0.3026870000000 -0.1875220000000  0.3125870000000 1.0   0.04
O      2 -0.6972720000000  0.1882520000000  0.5013510000000 1.0   0.04
O      2 -0.3026870000000  0.1875220000000  0.3125870000000 1.0   0.04
O      2 -0.6972720000000 -0.1882520000000  0.0013510000000 1.0   0.04
O      2 -0.3026870000000 -0.1875220000000 -0.1874130000000 1.0   0.04
O      2  0.6972720000000  0.1882520000000  0.0013510000000 1.0   0.04
O      2  0.3026870000000  0.1875220000000 -0.1874130000000 1.0   0.04
F      3  0.0000000000000 -0.5000000000000  0.1571500000000 1.0   0.09
F      3  0.0000000000000 -0.5000000000000 -0.3428500000000 1.0   0.09
S      4 -0.5000000000000  0.0000000000000 -0.0925620000000 1.0   0.01
S      4  0.5000000000000  0.0000000000000  0.4074380000000 1.0   0.01
Fe     5  0.5000000000000 -0.5000000000000 -0.3404020000000 1.0   3.79
Fe     5  0.5000000000000 -0.5000000000000  0.1595980000000 1.0   3.79
END
