TITL 2LiFeSO4F-200818-225535-90a721 0.0282 232.044986 -7.56591745E+003 8.00000 8.10816 16 (P21) n - 1
REM
REM Run started: Wed, 19 Aug 2020 00:05:43 +0100 in /lustre/scratch/uccabz1/launch_tmp/launcher_2020-08-18-21-55-33-248231
REM CASTEP 20.1 from code version af48c487+ pr-geom-scf-spinfix Tue Jun 2 15:39:59 2020 +0100
REM Functional Perdew Burke Ernzerhof Relativity Koelling-Harmon Dispersion off
REM Cut-off 340.0000 eV Grid scale 1.7500 Gmax 16.5316 1/A FBSC none
REM MP grid 3 3 2 Offset 0.000 0.000 0.000 No. kpts 6 Spacing 0.07
REM Total runtime: 4238.26 s
REM Overall efficiency: 81.5556 %
REM
REM 2LiFeSO4F.cell (6abdf011d38848201efe8211ff585b1c)
REM
REM compiler GCC version 4.9.2
REM options -cpp -iprefix /lustre/shared/ucl/apps/gcc/4.9.2/bin/../lib/gcc/x86_64-unknown-linux-gnu/4.9.2/ -mtune=corei7 -march=x86-64 -g -Og
REM COMMAND_LINE
REM seed -1300644951 -1237942791 1789985668 691137116 -1798255527 619306097 -1073560831 332865275 729973225 2119681785 647701378 779506968
REM
REM S 3|1.8|5|6|7|30:31:32(qc=5)
REM O 2|1.5|12|13|15|20:21(qc=5)
REM Li 1|1.3|8|9|10|10U:20(qc=5)
REM Fe 3|2.2|2.0|1.0|8|9|10|40:41:32(qc=5)
REM F 2|1.6|10|12|13|20:21(qc=5)
REM 
CELL 1.54180    5.22017    5.60690    8.29089   90.00000  107.01408   90.00000
LATT -1
SFAC Li O  F  S  Fe 
Li     1 -0.1456800000000 -0.4814880000000 -0.0876380000000 1.0  -0.01
Li     1  0.1456800000000  0.0185120000000  0.0876380000000 1.0  -0.01
O      2 -0.0602950000000 -0.2123040000000 -0.2621820000000 1.0   0.05
O      2 -0.0794180000000  0.1707890000000 -0.1206480000000 1.0   0.01
O      2 -0.4865420000000  0.0099310000000 -0.3278190000000 1.0   0.05
O      2 -0.1126830000000  0.1699890000000 -0.4194020000000 1.0   0.06
O      2  0.0602950000000 -0.7123040000000  0.2621820000000 1.0   0.05
O      2  0.0794180000000 -0.3292110000000  0.1206480000000 1.0   0.01
O      2  0.4865420000000 -0.4900690000000  0.3278190000000 1.0   0.05
O      2  0.1126830000000 -0.3300110000000  0.4194020000000 1.0   0.06
F      3 -0.4977940000000  0.0628040000000  0.1450320000000 1.0   0.12
F      3  0.4977940000000 -0.4371960000000 -0.1450320000000 1.0   0.12
S      4 -0.1888720000000  0.0353200000000 -0.2816200000000 1.0   0.02
S      4  0.1888720000000 -0.4646800000000  0.2816200000000 1.0   0.02
Fe     5 -0.2751580000000  0.2100780000000  0.3364170000000 1.0   3.70
Fe     5  0.2751580000000 -0.2899220000000 -0.3364170000000 1.0   3.70
END
