TITL 2LiFeSO4F-200819-010807-38c805 -0.0117 208.151660 -7.56498962E+003 8.00006 8.10292 16 (Cc) n - 1
REM
REM Run started: Wed, 19 Aug 2020 02:22:03 +0100 in /lustre/scratch/uccabz1/launch_tmp/launcher_2020-08-19-00-08-04-376071
REM CASTEP 20.1 from code version af48c487+ pr-geom-scf-spinfix Tue Jun 2 15:39:59 2020 +0100
REM Functional Perdew Burke Ernzerhof Relativity Koelling-Harmon Dispersion off
REM Cut-off 340.0000 eV Grid scale 1.7500 Gmax 16.5316 1/A FBSC none
REM MP grid 4 4 2 Offset 0.000 0.000 0.000 No. kpts 10 Spacing 0.07
REM Total runtime: 4493.35 s
REM Overall efficiency: 90.875 %
REM
REM 2LiFeSO4F.cell (6abdf011d38848201efe8211ff585b1c)
REM
REM compiler GCC version 4.9.2
REM options -cpp -iprefix /lustre/shared/ucl/apps/gcc/4.9.2/bin/../lib/gcc/x86_64-unknown-linux-gnu/4.9.2/ -mtune=corei7 -march=x86-64 -g -Og
REM COMMAND_LINE
REM seed 971751858 -1824369211 1587402226 865369109 -1599003445 1450131939 -377051573 744618461 -705921988 -1296928483 -1781364139 -986419854
REM
REM S 3|1.8|5|6|7|30:31:32(qc=5)
REM O 2|1.5|12|13|15|20:21(qc=5)
REM Li 1|1.3|8|9|10|10U:20(qc=5)
REM Fe 3|2.2|2.0|1.0|8|9|10|40:41:32(qc=5)
REM F 2|1.6|10|12|13|20:21(qc=5)
REM 
CELL 1.54180    5.23406    5.23406    9.76075   79.40971   79.40971   52.68692
LATT -1
SFAC Li O  F  S  Fe 
Li     1 -0.0176060000000  0.1479190000000  0.0298220000000 1.0  -0.03
Li     1  0.1479190000000 -0.0176060000000 -0.4701780000000 1.0  -0.03
O      2  0.5952070000000  0.2450690000000  0.1418090000000 1.0   0.01
O      2  0.4454540000000  0.1377720000000 -0.0536700000000 1.0   0.04
O      2  0.2385670000000  0.6970820000000 -0.0245700000000 1.0   0.05
O      2  0.0378400000000  0.4206780000000  0.1340900000000 1.0   0.05
O      2  0.2450690000000  0.5952070000000 -0.3581910000000 1.0   0.01
O      2  0.1377720000000  0.4454540000000 -0.5536700000000 1.0   0.04
O      2  0.6970820000000  0.2385670000000 -0.5245700000000 1.0   0.05
O      2  0.4206780000000  0.0378400000000 -0.3659100000000 1.0   0.05
F      3 -0.1329960000000  0.3697980000000 -0.1476000000000 1.0   0.12
F      3  0.3697980000000 -0.1329960000000  0.3524000000000 1.0   0.12
S      4  0.3393530000000  0.3715940000000  0.0495330000000 1.0   0.02
S      4  0.3715940000000  0.3393530000000 -0.4504670000000 1.0   0.02
Fe     5 -0.1897380000000 -0.4808820000000  0.3250540000000 1.0   3.73
Fe     5 -0.4808820000000 -0.1897380000000 -0.1749460000000 1.0   3.73
END
