TITL 2LiFeSO4F-200818-221919-4c0a7a -0.0010 260.268460 -7.55969534E+003 4.08269 4.49996 16 (Cmc21) n - 1
REM
REM Run started: Tue, 18 Aug 2020 23:09:04 +0100 in /lustre/scratch/uccabz1/launch_tmp/launcher_2020-08-18-21-19-16-602385
REM CASTEP 20.1 from code version af48c487+ pr-geom-scf-spinfix Tue Jun 2 15:39:59 2020 +0100
REM Functional Perdew Burke Ernzerhof Relativity Koelling-Harmon Dispersion off
REM Cut-off 340.0000 eV Grid scale 1.7500 Gmax 16.5316 1/A FBSC none
REM MP grid 4 4 2 Offset 0.000 0.000 0.000 No. kpts 6 Spacing 0.07
REM Total runtime: 3335.23 s
REM Overall efficiency: 72.5714 %
REM
REM 2LiFeSO4F.cell (6abdf011d38848201efe8211ff585b1c)
REM
REM compiler GCC version 4.9.2
REM options -cpp -iprefix /lustre/shared/ucl/apps/gcc/4.9.2/bin/../lib/gcc/x86_64-unknown-linux-gnu/4.9.2/ -mtune=corei7 -march=x86-64 -g -Og
REM COMMAND_LINE
REM seed -1537377245 463952612 -451473625 -1735679424 -562712388 1843916501 252233964 1080501856 1434518516 -847832252 599422667 169635465
REM
REM S 3|1.8|5|6|7|30:31:32(qc=5)
REM O 2|1.5|12|13|15|20:21(qc=5)
REM Li 1|1.3|8|9|10|10U:20(qc=5)
REM Fe 3|2.2|2.0|1.0|8|9|10|40:41:32(qc=5)
REM F 2|1.6|10|12|13|20:21(qc=5)
REM 
CELL 1.54180    4.33353    4.33353   13.92292   90.00000   90.00000   84.51482
LATT -1
SFAC Li O  F  S  Fe 
Li     1 -0.1028490000000 -0.1028490000000 -0.0029460000000 1.0  -0.01
Li     1  0.1028490000000  0.1028490000000 -0.5029460000000 1.0  -0.01
O      2  0.2299310000000 -0.3530450000000 -0.4740630000000 1.0   0.04
O      2  0.4056050000000 -0.0638110000000 -0.2917650000000 1.0   0.14
O      2 -0.2299310000000  0.3530450000000  0.0259370000000 1.0   0.04
O      2 -0.4056050000000  0.0638110000000  0.2082350000000 1.0   0.14
O      2  0.3530450000000 -0.2299310000000  0.0259370000000 1.0   0.04
O      2  0.0638110000000 -0.4056050000000  0.2082350000000 1.0   0.14
O      2 -0.3530450000000  0.2299310000000 -0.4740630000000 1.0   0.04
O      2 -0.0638110000000  0.4056050000000 -0.2917650000000 1.0   0.14
F      3  0.0557060000000  0.0557060000000  0.3658870000000 1.0   0.04
F      3 -0.0557060000000 -0.0557060000000 -0.1341130000000 1.0   0.04
S      4  0.4437450000000  0.4437450000000  0.0586770000000 1.0   0.08
S      4 -0.4437450000000 -0.4437450000000 -0.4413230000000 1.0   0.08
Fe     5 -0.1005010000000 -0.1005010000000  0.2589610000000 1.0   1.57
Fe     5  0.1005010000000  0.1005010000000 -0.2410390000000 1.0   1.57
END
