TITL 2LiFeSO4F-200819-013629-968809 -0.0156 253.103225 -7.56439195E+003 8.00000 8.16333 16 (P2) n - 1
REM
REM Run started: Wed, 19 Aug 2020 02:49:04 +0100 in /lustre/scratch/uccabz1/launch_tmp/launcher_2020-08-19-00-36-22-743692
REM CASTEP 20.1 from code version af48c487+ pr-geom-scf-spinfix Tue Jun 2 15:39:59 2020 +0100
REM Functional Perdew Burke Ernzerhof Relativity Koelling-Harmon Dispersion off
REM Cut-off 340.0000 eV Grid scale 1.7500 Gmax 16.5316 1/A FBSC none
REM MP grid 3 2 3 Offset 0.000 0.000 0.000 No. kpts 6 Spacing 0.07
REM Total runtime: 4390.05 s
REM Overall efficiency: 75.5556 %
REM
REM 2LiFeSO4F.cell (6abdf011d38848201efe8211ff585b1c)
REM
REM compiler GCC version 4.9.2
REM options -cpp -iprefix /lustre/shared/ucl/apps/gcc/4.9.2/bin/../lib/gcc/x86_64-unknown-linux-gnu/4.9.2/ -mtune=corei7 -march=x86-64 -g -Og
REM COMMAND_LINE
REM seed 118351332 -277452707 -742730049 1291393287 -432402472 -642008214 -495132925 -543041027 -1579858847 613055922 -281124932 -147950089
REM
REM S 3|1.8|5|6|7|30:31:32(qc=5)
REM O 2|1.5|12|13|15|20:21(qc=5)
REM Li 1|1.3|8|9|10|10U:20(qc=5)
REM Fe 3|2.2|2.0|1.0|8|9|10|40:41:32(qc=5)
REM F 2|1.6|10|12|13|20:21(qc=5)
REM 
CELL 1.54180    5.76218    7.77043    5.76118   90.00000   90.00000  101.12961
LATT -1
SFAC Li O  F  S  Fe 
Li     1  0.2315390000000  0.2913350000000  0.1927680000000 1.0  -0.01
Li     1 -0.2315390000000 -0.2913350000000  0.1927680000000 1.0  -0.01
O      2  0.2507910000000 -0.4820070000000  0.0487360000000 1.0   0.01
O      2  0.5307110000000 -0.1994970000000  0.0055430000000 1.0   0.01
O      2  0.1520340000000 -0.2157920000000  0.2215250000000 1.0   0.09
O      2  0.1525680000000 -0.2460240000000 -0.2013830000000 1.0   0.10
O      2 -0.2507910000000  0.4820070000000  0.0487360000000 1.0   0.01
O      2 -0.5307110000000  0.1994970000000  0.0055430000000 1.0   0.01
O      2 -0.1520340000000  0.2157920000000  0.2215250000000 1.0   0.09
O      2 -0.1525680000000  0.2460240000000 -0.2013830000000 1.0   0.10
F      3  0.3614350000000  0.2315550000000 -0.5293260000000 1.0   0.14
F      3 -0.3614350000000 -0.2315550000000 -0.5293260000000 1.0   0.14
S      4  0.2812270000000 -0.2914370000000  0.0173350000000 1.0   0.01
S      4 -0.2812270000000  0.2914370000000  0.0173350000000 1.0   0.01
Fe     5  0.3300960000000 -0.2010230000000 -0.4837020000000 1.0   3.65
Fe     5 -0.3300960000000  0.2010230000000 -0.4837020000000 1.0   3.65
END
