TITL 2LiFeSO4F-200818-191543-8d475c 0.0153 204.755964 -7.56403769E+003 8.00003 8.08179 16 (C2) n - 1
REM
REM Run started: Tue, 18 Aug 2020 20:21:47 +0100 in /lustre/scratch/uccabz1/launch_tmp/launcher_2020-08-18-18-15-41-609379
REM CASTEP 20.1 from code version af48c487+ pr-geom-scf-spinfix Tue Jun 2 15:39:59 2020 +0100
REM Functional Perdew Burke Ernzerhof Relativity Koelling-Harmon Dispersion off
REM Cut-off 340.0000 eV Grid scale 1.7500 Gmax 16.5316 1/A FBSC none
REM MP grid 3 3 3 Offset 0.000 0.000 0.000 No. kpts 10 Spacing 0.07
REM Total runtime: 4014.8 s
REM Overall efficiency: 88.4286 %
REM
REM 2LiFeSO4F.cell (6abdf011d38848201efe8211ff585b1c)
REM
REM compiler GCC version 4.9.2
REM options -cpp -iprefix /lustre/shared/ucl/apps/gcc/4.9.2/bin/../lib/gcc/x86_64-unknown-linux-gnu/4.9.2/ -mtune=corei7 -march=x86-64 -g -Og
REM COMMAND_LINE
REM seed 2006212990 1862764140 -1425959461 -1990962331 1637334448 45949527 1163545817 -2146369463 -783009818 1145222562 -792245759 1681911202
REM
REM S 3|1.8|5|6|7|30:31:32(qc=5)
REM O 2|1.5|12|13|15|20:21(qc=5)
REM Li 1|1.3|8|9|10|10U:20(qc=5)
REM Fe 3|2.2|2.0|1.0|8|9|10|40:41:32(qc=5)
REM F 2|1.6|10|12|13|20:21(qc=5)
REM 
CELL 1.54180    6.09136    6.37930    6.37930  109.21295  106.30185  106.30185
LATT -1
SFAC Li O  F  S  Fe 
Li     1  0.0000000000000 -0.2608730000000  0.2608730000000 1.0  -0.03
Li     1  0.0000000000000  0.4426760000000 -0.4426760000000 1.0  -0.01
O      2  0.2653660000000  0.0634760000000  0.5404480000000 1.0   0.01
O      2  0.2572530000000 -0.1079790000000  0.1419230000000 1.0   0.05
O      2  0.5971770000000 -0.0707350000000  0.5010780000000 1.0   0.07
O      2  0.6059480000000  0.2867410000000  0.4373720000000 1.0   0.05
O      2 -0.2653660000000 -0.5404480000000 -0.0634760000000 1.0   0.01
O      2 -0.2572530000000 -0.1419230000000  0.1079790000000 1.0   0.05
O      2 -0.5971770000000 -0.5010780000000  0.0707350000000 1.0   0.07
O      2 -0.6059480000000 -0.4373720000000 -0.2867410000000 1.0   0.05
F      3  0.0785850000000  0.3363490000000  0.2452820000000 1.0   0.09
F      3 -0.0785850000000 -0.2452820000000 -0.3363490000000 1.0   0.09
S      4  0.4328030000000  0.0469650000000  0.4114980000000 1.0   0.01
S      4 -0.4328030000000 -0.4114980000000 -0.0469650000000 1.0   0.01
Fe     5 -0.5000000000000 -0.4302950000000 -0.5697050000000 1.0   3.75
Fe     5  0.0000000000000  0.0184250000000 -0.0184250000000 1.0   3.73
END
