TITL 2LiFeSO4F-200819-003849-d4fdc8 0.0666 205.857569 -7.56469521E+003 8.00000 8.15957 16 (C2) n - 1
REM
REM Run started: Wed, 19 Aug 2020 01:26:03 +0100 in /lustre/scratch/uccabz1/launch_tmp/launcher_2020-08-18-23-38-45-897931
REM CASTEP 20.1 from code version af48c487+ pr-geom-scf-spinfix Tue Jun 2 15:39:59 2020 +0100
REM Functional Perdew Burke Ernzerhof Relativity Koelling-Harmon Dispersion off
REM Cut-off 340.0000 eV Grid scale 1.7500 Gmax 16.5316 1/A FBSC none
REM MP grid 3 3 3 Offset 0.000 0.000 0.000 No. kpts 10 Spacing 0.07
REM Total runtime: 2871.98 s
REM Overall efficiency: 89.1429 %
REM
REM 2LiFeSO4F.cell (6abdf011d38848201efe8211ff585b1c)
REM
REM compiler GCC version 4.9.2
REM options -cpp -iprefix /lustre/shared/ucl/apps/gcc/4.9.2/bin/../lib/gcc/x86_64-unknown-linux-gnu/4.9.2/ -mtune=corei7 -march=x86-64 -g -Og
REM COMMAND_LINE
REM seed -1507278380 -570399338 1923329489 -1114771069 529077325 -1170717191 74503392 -642558779 -740944006 870369389 621920090 991692510
REM
REM S 3|1.8|5|6|7|30:31:32(qc=5)
REM O 2|1.5|12|13|15|20:21(qc=5)
REM Li 1|1.3|8|9|10|10U:20(qc=5)
REM Fe 3|2.2|2.0|1.0|8|9|10|40:41:32(qc=5)
REM F 2|1.6|10|12|13|20:21(qc=5)
REM 
CELL 1.54180    5.68206    6.30546    6.30546  112.57345   95.15068   95.15068
LATT -1
SFAC Li O  F  S  Fe 
Li     1 -0.2853160000000  0.0994790000000  0.4340660000000 1.0  -0.02
Li     1  0.2853160000000 -0.4340660000000 -0.0994790000000 1.0  -0.02
O      2  0.0870950000000  0.0495200000000  0.4775080000000 1.0   0.06
O      2 -0.0219880000000  0.2064400000000  0.1922880000000 1.0   0.07
O      2  0.3897280000000  0.1170500000000  0.2423630000000 1.0   0.02
O      2  0.2513690000000  0.4494780000000  0.5463670000000 1.0   0.04
O      2 -0.0870950000000 -0.4775080000000 -0.0495200000000 1.0   0.06
O      2  0.0219880000000 -0.1922880000000 -0.2064400000000 1.0   0.07
O      2 -0.3897280000000 -0.2423630000000 -0.1170500000000 1.0   0.02
O      2 -0.2513690000000 -0.5463670000000 -0.4494780000000 1.0   0.04
F      3 -0.4442500000000 -0.0993880000000 -0.4768020000000 1.0   0.12
F      3  0.4442500000000  0.4768020000000  0.0993880000000 1.0   0.12
S      4  0.1853480000000  0.2058520000000  0.3616240000000 1.0   0.02
S      4 -0.1853480000000 -0.3616240000000 -0.2058520000000 1.0   0.02
Fe     5  0.2586330000000 -0.1942190000000 -0.4170140000000 1.0   3.71
Fe     5 -0.2586330000000  0.4170140000000  0.1942190000000 1.0   3.71
END
