TITL 2LiFeSO4F-200804-054642-e66f01 0.1253 210.845938 -7.56105505E+003 8.00903 8.10699 16 (Cmc21) n - 1
REM
REM Run started: Tue, 04 Aug 2020 07:26:24 +0100 in /lustre/scratch/uccabz1/launch_tmp/launcher_2020-08-04-04-46-40-814586
REM CASTEP 20.1 from code version af48c487+ pr-geom-scf-spinfix Tue Jun 2 15:39:59 2020 +0100
REM Functional Perdew Burke Ernzerhof Relativity Koelling-Harmon Dispersion off
REM Cut-off 340.0000 eV Grid scale 1.7500 Gmax 16.5316 1/A FBSC none
REM MP grid 4 4 1 Offset 0.000 0.000 0.000 No. kpts 6 Spacing 0.07
REM Total runtime: 6493.53 s
REM Overall efficiency: 68.9231 %
REM
REM 2LiFeSO4F.cell (6abdf011d38848201efe8211ff585b1c)
REM
REM compiler GCC version 4.9.2
REM options -cpp -iprefix /lustre/shared/ucl/apps/gcc/4.9.2/bin/../lib/gcc/x86_64-unknown-linux-gnu/4.9.2/ -mtune=corei7 -march=x86-64 -g -Og
REM COMMAND_LINE
REM seed -1678732014 1816021368 -797161687 -2029004484 567828596 -1540553180 868589610 1396828493 -1668650326 1124082761 -910985300 -215035408
REM
REM S 3|1.8|5|6|7|30:31:32(qc=5)
REM O 2|1.5|12|13|15|20:21(qc=5)
REM Li 1|1.3|8|9|10|10U:20(qc=5)
REM Fe 3|2.2|2.0|1.0|8|9|10|40:41:32(qc=5)
REM F 2|1.6|10|12|13|20:21(qc=5)
REM 
CELL 1.54180    3.68840    3.68840   15.51016   90.00000   90.00000   92.21965
LATT -1
SFAC Li O  F  S  Fe 
Li     1  0.3783520000000 -0.3783520000000 -0.2123280000000 1.0   0.01
Li     1 -0.3783520000000  0.3783520000000  0.2876720000000 1.0   0.01
O      2 -0.0935100000000  0.6182190000000  0.3797500000000 1.0   0.01
O      2  0.1383880000000  0.3713910000000  0.5689230000000 1.0   0.39
O      2  0.0935100000000 -0.6182190000000 -0.1202500000000 1.0   0.01
O      2 -0.1383880000000 -0.3713910000000  0.0689230000000 1.0   0.39
O      2  0.6182190000000 -0.0935100000000 -0.1202500000000 1.0   0.01
O      2  0.3713910000000  0.1383880000000  0.0689230000000 1.0   0.39
O      2 -0.6182190000000  0.0935100000000  0.3797500000000 1.0   0.01
O      2 -0.3713910000000 -0.1383880000000  0.5689230000000 1.0   0.39
F      3 -0.6381650000000  0.6381650000000  0.2161950000000 1.0   0.16
F      3  0.6381650000000 -0.6381650000000 -0.2838050000000 1.0   0.16
S      4 -0.1397100000000  0.1397100000000 -0.0655050000000 1.0   0.01
S      4  0.1397100000000 -0.1397100000000  0.4344950000000 1.0   0.01
Fe     5  0.3343530000000 -0.3343530000000  0.0902340000000 1.0   3.05
Fe     5 -0.3343530000000  0.3343530000000 -0.4097660000000 1.0   3.05
END
