TITL 2LiFeSO4F-200804-051331-690acd 0.0351 209.552245 -7.56583525E+003 8.00000 8.14273 16 (P-1) n - 1
REM
REM Run started: Tue, 04 Aug 2020 09:34:56 +0100 in /lustre/scratch/uccabz1/launch_tmp/launcher_2020-08-04-04-13-29-748971
REM CASTEP 20.1 from code version af48c487+ pr-geom-scf-spinfix Tue Jun 2 15:39:59 2020 +0100
REM Functional Perdew Burke Ernzerhof Relativity Koelling-Harmon Dispersion off
REM Cut-off 340.0000 eV Grid scale 1.7500 Gmax 16.5316 1/A FBSC none
REM MP grid 3 4 3 Offset 0.000 0.000 0.000 No. kpts 18 Spacing 0.07
REM Total runtime: 17518.8 s
REM Overall efficiency: 96.0769 %
REM
REM 2LiFeSO4F.cell (6abdf011d38848201efe8211ff585b1c)
REM
REM compiler GCC version 4.9.2
REM options -cpp -iprefix /lustre/shared/ucl/apps/gcc/4.9.2/bin/../lib/gcc/x86_64-unknown-linux-gnu/4.9.2/ -mtune=corei7 -march=x86-64 -g -Og
REM COMMAND_LINE
REM seed 823373463 765429006 -525289598 -153477048 -251686547 -967137714 -249836107 1281302274 1901327452 -290400799 813710088 -301169350
REM
REM S 3|1.8|5|6|7|30:31:32(qc=5)
REM O 2|1.5|12|13|15|20:21(qc=5)
REM Li 1|1.3|8|9|10|10U:20(qc=5)
REM Fe 3|2.2|2.0|1.0|8|9|10|40:41:32(qc=5)
REM F 2|1.6|10|12|13|20:21(qc=5)
REM 
CELL 1.54180    7.48192    4.98914    7.67041  107.00997  124.25509   97.68779
LATT -1
SFAC Li O  F  S  Fe 
Li     1  0.1672950000000  0.4476210000000  0.6788390000000 1.0  -0.01
Li     1 -0.1672950000000 -0.4476210000000 -0.6788390000000 1.0  -0.01
O      2  0.2933300000000  0.8887250000000  0.1937470000000 1.0   0.10
O      2  0.1684520000000  0.3618160000000 -0.0794540000000 1.0   0.06
O      2  0.2665170000000  0.4815960000000  0.3063810000000 1.0   0.07
O      2  0.5779280000000  0.6511120000000  0.2861450000000 1.0   0.03
O      2 -0.2933300000000 -0.8887250000000 -0.1937470000000 1.0   0.10
O      2 -0.1684520000000 -0.3618160000000  0.0794540000000 1.0   0.06
O      2 -0.2665170000000 -0.4815960000000 -0.3063810000000 1.0   0.07
O      2 -0.5779280000000 -0.6511120000000 -0.2861450000000 1.0   0.03
F      3  0.0602360000000 -0.2299140000000 -0.3415750000000 1.0   0.09
F      3 -0.0602360000000  0.2299140000000  0.3415750000000 1.0   0.09
S      4  0.3318020000000  0.5927760000000  0.1801800000000 1.0   0.02
S      4 -0.3318020000000 -0.5927760000000 -0.1801800000000 1.0   0.02
Fe     5  0.0754850000000  0.0581730000000  0.2031790000000 1.0   3.65
Fe     5 -0.0754850000000 -0.0581730000000 -0.2031790000000 1.0   3.65
END
