TITL 2LiFeSO4F-200819-005906-2bda53 0.1106 314.216844 -7.56545099E+003 8.00000 8.21274 16 (P-1) n - 1
REM
REM Run started: Wed, 19 Aug 2020 08:32:55 +0100 in /scratch/scratch/uccabz1/launch_tmp/launcher_2020-08-18-23-59-03-101101
REM CASTEP 19.11| from code version Version unavailable
REM Functional Perdew Burke Ernzerhof Relativity Koelling-Harmon Dispersion off
REM Cut-off 340.0000 eV Grid scale 1.7500 Gmax 16.5316 1/A FBSC none
REM MP grid 4 3 3 Offset 0.000 0.000 0.000 No. kpts 18 Spacing 0.07
REM Total runtime: 30574.1 s
REM Overall efficiency: 96.8333 %
REM
REM 2LiFeSO4F.cell (6abdf011d38848201efe8211ff585b1c)
REM
REM compiler GCC version 4.9.2
REM options -cpp -iprefix /scratch/UCL/applications/gcc/4.9.2/bin/../lib/gcc/x86_64-unknown-linux-gnu/4.9.2/ -mtune=corei7 -march=x86-64 -g -O2
REM COMMAND_LINE
REM seed 1010134178 -2093468476 1271091740 54538011 -1333733189 1111371211 1731424641 1038730206 -420421856 1767708175 625602251 -130804520
REM
REM S 3|1.8|5|6|7|30:31:32(qc=5)
REM O 2|1.5|12|13|15|20:21(qc=5)
REM Li 1|1.3|8|9|10|10U:20(qc=5)
REM Fe 3|2.2|2.0|1.0|8|9|10|40:41:32(qc=5)
REM F 2|1.6|10|12|13|20:21(qc=5)
REM 
CELL 1.54180    5.40485    8.59497   10.21766  129.32908  117.64141   83.27793
LATT -1
SFAC Li O  F  S  Fe 
Li     1  0.3699330000000  0.0145450000000  0.1836130000000 1.0  -0.02
Li     1 -0.3699330000000 -0.0145450000000 -0.1836130000000 1.0  -0.02
O      2  0.0428640000000 -0.1650120000000  0.1249940000000 1.0   0.08
O      2 -0.3073350000000 -0.2228100000000 -0.1683930000000 1.0   0.02
O      2 -0.4701500000000 -0.1898610000000  0.0361800000000 1.0   0.01
O      2 -0.3219180000000 -0.4986990000000 -0.1571720000000 1.0   0.09
O      2 -0.0428640000000  0.1650120000000 -0.1249940000000 1.0   0.08
O      2  0.3073350000000  0.2228100000000  0.1683930000000 1.0   0.02
O      2  0.4701500000000  0.1898610000000 -0.0361800000000 1.0   0.01
O      2  0.3219180000000  0.4986990000000  0.1571720000000 1.0   0.09
F      3  0.4399720000000 -0.0661510000000 -0.4299820000000 1.0   0.12
F      3 -0.4399720000000  0.0661510000000  0.4299820000000 1.0   0.12
S      4 -0.2758860000000 -0.2669750000000 -0.0444050000000 1.0   0.01
S      4  0.2758860000000  0.2669750000000  0.0444050000000 1.0   0.01
Fe     5 -0.2982360000000  0.2211700000000 -0.2941870000000 1.0   3.67
Fe     5  0.2982360000000 -0.2211700000000  0.2941870000000 1.0   3.67
END
