TITL 2LiFeSO4F-200804-052935-a16086 0.0118 254.885507 -7.56509530E+003 8.00000 8.09385 16 (C2) n - 1
REM
REM Run started: Tue, 04 Aug 2020 07:26:29 +0100 in /lustre/scratch/uccabz1/launch_tmp/launcher_2020-08-04-04-29-33-873588
REM CASTEP 20.1 from code version af48c487+ pr-geom-scf-spinfix Tue Jun 2 15:39:59 2020 +0100
REM Functional Perdew Burke Ernzerhof Relativity Koelling-Harmon Dispersion off
REM Cut-off 340.0000 eV Grid scale 1.7500 Gmax 16.5316 1/A FBSC none
REM MP grid 3 4 2 Offset 0.000 0.000 0.000 No. kpts 12 Spacing 0.07
REM Total runtime: 7073.55 s
REM Overall efficiency: 87 %
REM
REM 2LiFeSO4F.cell (6abdf011d38848201efe8211ff585b1c)
REM
REM compiler GCC version 4.9.2
REM options -cpp -iprefix /lustre/shared/ucl/apps/gcc/4.9.2/bin/../lib/gcc/x86_64-unknown-linux-gnu/4.9.2/ -mtune=corei7 -march=x86-64 -g -Og
REM COMMAND_LINE
REM seed -2128839784 1897615930 -396333255 -179523697 1580625233 1875811851 -1609911866 17266363 -602340268 220788120 -122642945 752228069
REM
REM S 3|1.8|5|6|7|30:31:32(qc=5)
REM O 2|1.5|12|13|15|20:21(qc=5)
REM Li 1|1.3|8|9|10|10U:20(qc=5)
REM Fe 3|2.2|2.0|1.0|8|9|10|40:41:32(qc=5)
REM F 2|1.6|10|12|13|20:21(qc=5)
REM 
CELL 1.54180    6.90526    4.97073    7.97731  108.15290  101.00162   90.00000
LATT -1
SFAC Li O  F  S  Fe 
Li     1 -0.2173600000000 -0.4586090000000  0.1448890000000 1.0  -0.01
Li     1  0.2173600000000  0.3965020000000 -0.1448890000000 1.0  -0.01
O      2 -0.0252380000000  0.1967830000000 -0.2775470000000 1.0   0.02
O      2 -0.3802830000000  0.0647140000000 -0.4153830000000 1.0   0.09
O      2 -0.2546360000000  0.5688910000000 -0.2820850000000 1.0   0.06
O      2 -0.2837780000000  0.2663270000000 -0.0914890000000 1.0   0.02
O      2  0.0252380000000  0.4743300000000  0.2775470000000 1.0   0.02
O      2  0.3802830000000  0.4800970000000  0.4153830000000 1.0   0.09
O      2  0.2546360000000  0.8509770000000  0.2820850000000 1.0   0.06
O      2  0.2837780000000  0.3578160000000  0.0914890000000 1.0   0.02
F      3 -0.3283850000000 -0.1189320000000  0.1983640000000 1.0   0.12
F      3  0.3283850000000 -0.3172950000000 -0.1983640000000 1.0   0.12
S      4 -0.2264880000000  0.2816490000000 -0.2594480000000 1.0   0.01
S      4  0.2264880000000  0.5410970000000  0.2594480000000 1.0   0.01
Fe     5 -0.5022720000000 -0.2283880000000 -0.3322870000000 1.0   3.70
Fe     5  0.5022720000000  0.1038990000000  0.3322870000000 1.0   3.70
END
