TITL 2LiFeSO4F-200804-023905-7be4db 0.0035 268.394343 -7.56233503E+003 8.00000 8.24573 16 (C2) n - 1
REM
REM Run started: Tue, 04 Aug 2020 05:24:56 +0100 in /lustre/scratch/uccabz1/launch_tmp/launcher_2020-08-04-01-39-01-235058
REM CASTEP 20.1 from code version af48c487+ pr-geom-scf-spinfix Tue Jun 2 15:39:59 2020 +0100
REM Functional Perdew Burke Ernzerhof Relativity Koelling-Harmon Dispersion off
REM Cut-off 340.0000 eV Grid scale 1.7500 Gmax 16.5316 1/A FBSC none
REM MP grid 3 3 3 Offset 0.000 0.000 0.000 No. kpts 10 Spacing 0.07
REM Total runtime: 11462.9 s
REM Overall efficiency: 81.625 %
REM
REM 2LiFeSO4F.cell (6abdf011d38848201efe8211ff585b1c)
REM
REM compiler GCC version 4.9.2
REM options -cpp -iprefix /lustre/shared/ucl/apps/gcc/4.9.2/bin/../lib/gcc/x86_64-unknown-linux-gnu/4.9.2/ -mtune=corei7 -march=x86-64 -g -Og
REM COMMAND_LINE
REM seed 344655078 -1640543637 844626888 -1884375370 808435524 1203438064 2046169561 -936879564 1133045986 -2040248896 -1586630483 -1962644161
REM
REM S 3|1.8|5|6|7|30:31:32(qc=5)
REM O 2|1.5|12|13|15|20:21(qc=5)
REM Li 1|1.3|8|9|10|10U:20(qc=5)
REM Fe 3|2.2|2.0|1.0|8|9|10|40:41:32(qc=5)
REM F 2|1.6|10|12|13|20:21(qc=5)
REM 
CELL 1.54180    5.77640    7.62830    6.78137   84.75738   76.03468   67.75199
LATT -1
SFAC Li O  F  S  Fe 
Li     1  0.0073960000000 -0.0147920000000  0.0000000000000 1.0  -0.03
Li     1  0.3209700000000 -0.6419400000000  0.5000000000000 1.0  -0.03
O      2  0.5634810000000 -0.8456160000000 -0.3612340000000 1.0   0.00
O      2  0.5422860000000 -1.1547900000000 -0.2173110000000 1.0   0.02
O      2  0.1442210000000 -0.8740850000000 -0.2032080000000 1.0   0.00
O      2  0.2821340000000 -0.8456160000000  0.3612340000000 1.0   0.00
O      2  0.6125050000000 -1.1547900000000  0.2173110000000 1.0   0.02
O      2  0.7298640000000 -0.8740850000000  0.2032080000000 1.0   0.00
O      2  0.4338180000000 -0.8676350000000  0.0000000000000 1.0   0.00
O      2  0.1882810000000 -0.3765630000000 -0.5000000000000 1.0   0.40
F      3 -0.2814440000000  0.5628880000000  0.5000000000000 1.0   0.16
F      3  0.1371380000000 -0.2742760000000  0.0000000000000 1.0   0.06
S      4  0.4235650000000 -0.9444300000000 -0.2147490000000 1.0   0.01
S      4  0.5208660000000 -0.9444300000000  0.2147490000000 1.0   0.01
Fe     5 -0.6377190000000  0.6802380000000 -0.3311360000000 1.0   3.70
Fe     5 -0.0425190000000  0.6802380000000  0.3311360000000 1.0   3.70
END
