TITL 2LiFeSO4F-200804-031237-a7ea0d 0.0487 264.797294 -7.56600966E+003 8.00000 8.14126 16 (P-1) n - 1
REM
REM Run started: Tue, 04 Aug 2020 06:05:59 +0100 in /lustre/scratch/uccabz1/launch_tmp/launcher_2020-08-04-02-12-28-114216
REM CASTEP 20.1 from code version af48c487+ pr-geom-scf-spinfix Tue Jun 2 15:39:59 2020 +0100
REM Functional Perdew Burke Ernzerhof Relativity Koelling-Harmon Dispersion off
REM Cut-off 340.0000 eV Grid scale 1.7500 Gmax 16.5316 1/A FBSC none
REM MP grid 3 3 2 Offset 0.000 0.000 0.000 No. kpts 9 Spacing 0.07
REM Total runtime: 11323.5 s
REM Overall efficiency: 93.4615 %
REM
REM 2LiFeSO4F.cell (6abdf011d38848201efe8211ff585b1c)
REM
REM compiler GCC version 4.9.2
REM options -cpp -iprefix /lustre/shared/ucl/apps/gcc/4.9.2/bin/../lib/gcc/x86_64-unknown-linux-gnu/4.9.2/ -mtune=corei7 -march=x86-64 -g -Og
REM COMMAND_LINE
REM seed -45907532 253507238 617655560 1771618011 408109549 698263685 741908960 -1558215824 752835470 -663641465 1735301844 379522814
REM
REM S 3|1.8|5|6|7|30:31:32(qc=5)
REM O 2|1.5|12|13|15|20:21(qc=5)
REM Li 1|1.3|8|9|10|10U:20(qc=5)
REM Fe 3|2.2|2.0|1.0|8|9|10|40:41:32(qc=5)
REM F 2|1.6|10|12|13|20:21(qc=5)
REM 
CELL 1.54180    5.79138    5.69553    8.48441   98.25303   73.37336   88.75450
LATT -1
SFAC Li O  F  S  Fe 
Li     1 -0.3526430000000  0.0034110000000  0.1227280000000 1.0  -0.01
Li     1  0.3526430000000 -0.0034110000000 -0.1227280000000 1.0  -0.01
O      2 -0.0882370000000 -0.5229290000000 -0.2852780000000 1.0   0.07
O      2 -0.3219380000000 -0.1634910000000 -0.1072310000000 1.0   0.01
O      2 -0.0482920000000 -0.1339650000000 -0.3825010000000 1.0   0.10
O      2  0.1174980000000 -0.2197430000000 -0.1555060000000 1.0   0.02
O      2  0.0882370000000  0.5229290000000  0.2852780000000 1.0   0.07
O      2  0.3219380000000  0.1634910000000  0.1072310000000 1.0   0.01
O      2  0.0482920000000  0.1339650000000  0.3825010000000 1.0   0.10
O      2 -0.1174980000000  0.2197430000000  0.1555060000000 1.0   0.02
F      3 -0.4655690000000 -0.1467050000000  0.3068990000000 1.0   0.14
F      3  0.4655690000000  0.1467050000000 -0.3068990000000 1.0   0.14
S      4 -0.0849780000000 -0.2618010000000 -0.2261470000000 1.0   0.01
S      4  0.0849780000000  0.2618010000000  0.2261470000000 1.0   0.01
Fe     5 -0.2111070000000  0.1977420000000 -0.3928480000000 1.0   3.67
Fe     5  0.2111070000000 -0.1977420000000  0.3928480000000 1.0   3.67
END
