TITL 2LiFeSO4F-200804-042144-4b44eb 0.0499 234.231767 -7.56584196E+003 8.00000 8.14265 16 (P-1) n - 1
REM
REM Run started: Tue, 04 Aug 2020 06:43:17 +0100 in /lustre/scratch/uccabz1/launch_tmp/launcher_2020-08-04-03-21-41-128225
REM CASTEP 20.1 from code version af48c487+ pr-geom-scf-spinfix Tue Jun 2 15:39:59 2020 +0100
REM Functional Perdew Burke Ernzerhof Relativity Koelling-Harmon Dispersion off
REM Cut-off 340.0000 eV Grid scale 1.7500 Gmax 16.5316 1/A FBSC none
REM MP grid 3 2 3 Offset 0.000 0.000 0.000 No. kpts 9 Spacing 0.07
REM Total runtime: 8549.2 s
REM Overall efficiency: 93.5 %
REM
REM 2LiFeSO4F.cell (6abdf011d38848201efe8211ff585b1c)
REM
REM compiler GCC version 4.9.2
REM options -cpp -iprefix /lustre/shared/ucl/apps/gcc/4.9.2/bin/../lib/gcc/x86_64-unknown-linux-gnu/4.9.2/ -mtune=corei7 -march=x86-64 -g -Og
REM COMMAND_LINE
REM seed 1166318213 1454511328 -350275736 1399358128 -118211025 517854998 2034398252 1584299607 1798068430 -1514988082 -634891029 -1222682687
REM
REM S 3|1.8|5|6|7|30:31:32(qc=5)
REM O 2|1.5|12|13|15|20:21(qc=5)
REM Li 1|1.3|8|9|10|10U:20(qc=5)
REM Fe 3|2.2|2.0|1.0|8|9|10|40:41:32(qc=5)
REM F 2|1.6|10|12|13|20:21(qc=5)
REM 
CELL 1.54180    5.11786    7.56062    6.22303  102.26502   84.54538   91.36522
LATT -1
SFAC Li O  F  S  Fe 
Li     1  0.0839330000000 -0.4088350000000  0.3395100000000 1.0  -0.02
Li     1 -0.0839330000000  0.4088350000000 -0.3395100000000 1.0  -0.02
O      2  0.3610810000000  0.0185170000000 -0.2450750000000 1.0   0.07
O      2  0.5316920000000  0.2794130000000  0.0160320000000 1.0   0.08
O      2  0.1254460000000  0.3045590000000 -0.1608330000000 1.0   0.02
O      2  0.5612640000000  0.2826910000000 -0.3752210000000 1.0   0.07
O      2 -0.3610810000000 -0.0185170000000  0.2450750000000 1.0   0.07
O      2 -0.5316920000000 -0.2794130000000 -0.0160320000000 1.0   0.08
O      2 -0.1254460000000 -0.3045590000000  0.1608330000000 1.0   0.02
O      2 -0.5612640000000 -0.2826910000000  0.3752210000000 1.0   0.07
F      3 -0.1261520000000 -0.3510230000000 -0.3829310000000 1.0   0.09
F      3  0.1261520000000  0.3510230000000  0.3829310000000 1.0   0.09
S      4  0.3877170000000  0.2228080000000 -0.1881550000000 1.0   0.01
S      4 -0.3877170000000 -0.2228080000000  0.1881550000000 1.0   0.01
Fe     5 -0.5546090000000  0.2094890000000  0.3070480000000 1.0   3.69
Fe     5  0.5546090000000 -0.2094890000000 -0.3070480000000 1.0   3.69
END
