TITL 2LiFeSO4F-200819-024606-d5ba93 0.0185 248.693907 -7.56534806E+003 8.00000 8.11883 16 (Cm) n - 1
REM
REM Run started: Wed, 19 Aug 2020 04:21:13 +0100 in /lustre/scratch/uccabz1/launch_tmp/launcher_2020-08-19-01-46-04-158409
REM CASTEP 20.1 from code version af48c487+ pr-geom-scf-spinfix Tue Jun 2 15:39:59 2020 +0100
REM Functional Perdew Burke Ernzerhof Relativity Koelling-Harmon Dispersion off
REM Cut-off 340.0000 eV Grid scale 1.7500 Gmax 16.5316 1/A FBSC none
REM MP grid 4 3 2 Offset 0.000 0.000 0.000 No. kpts 12 Spacing 0.07
REM Total runtime: 6710.24 s
REM Overall efficiency: 75.875 %
REM
REM 2LiFeSO4F.cell (6abdf011d38848201efe8211ff585b1c)
REM
REM compiler GCC version 4.9.2
REM options -cpp -iprefix /lustre/shared/ucl/apps/gcc/4.9.2/bin/../lib/gcc/x86_64-unknown-linux-gnu/4.9.2/ -mtune=corei7 -march=x86-64 -g -Og
REM COMMAND_LINE
REM seed -1621663913 206476051 -1731239743 2125901539 -461221691 1487408596 -1316547399 1462525570 1341704497 -1680188479 -184996401 -347399031
REM
REM S 3|1.8|5|6|7|30:31:32(qc=5)
REM O 2|1.5|12|13|15|20:21(qc=5)
REM Li 1|1.3|8|9|10|10U:20(qc=5)
REM Fe 3|2.2|2.0|1.0|8|9|10|40:41:32(qc=5)
REM F 2|1.6|10|12|13|20:21(qc=5)
REM 
CELL 1.54180    4.60749    7.47050    8.59842  109.34046   95.77091  112.66191
LATT -1
SFAC Li O  F  S  Fe 
Li     1  0.4052150000000 -0.0976500000000  0.3143800000000 1.0  -0.02
Li     1  0.0908350000000 -0.4120300000000 -0.3143800000000 1.0  -0.02
O      2  0.2322860000000  0.3554010000000  0.5554880000000 1.0   0.05
O      2  0.7272340000000  0.4697780000000  0.7760470000000 1.0   0.01
O      2  0.4670750000000  0.1052080000000  0.5550200000000 1.0   0.05
O      2  0.1955690000000  0.2138210000000  0.7753630000000 1.0   0.07
O      2 -0.3232020000000 -0.2000870000000 -0.5554880000000 1.0   0.05
O      2 -0.0488130000000 -0.3062690000000 -0.7760470000000 1.0   0.01
O      2 -0.0879450000000 -0.4498120000000 -0.5550200000000 1.0   0.05
O      2 -0.5797940000000 -0.5615420000000 -0.7753630000000 1.0   0.07
F      3 -0.5595600000000 -0.1549560000000 -0.2196990000000 1.0   0.13
F      3 -0.3398610000000  0.0647430000000  0.2196990000000 1.0   0.13
S      4  0.4134650000000  0.2901200000000  0.6664520000000 1.0   0.01
S      4 -0.2529880000000 -0.3763320000000 -0.6664520000000 1.0   0.01
Fe     5 -0.2603170000000  0.0040050000000 -0.3071620000000 1.0   3.69
Fe     5  0.0468450000000  0.3111670000000  0.3071620000000 1.0   3.69
END
