TITL 2LiFeSO4F-200804-042144-ea6737 0.0926 285.763146 -7.56385673E+003 8.00000 8.15789 16 (Pmma) n - 1
REM
REM Run started: Tue, 04 Aug 2020 06:04:50 +0100 in /lustre/scratch/uccabz1/launch_tmp/launcher_2020-08-04-03-21-42-616263
REM CASTEP 20.1 from code version af48c487+ pr-geom-scf-spinfix Tue Jun 2 15:39:59 2020 +0100
REM Functional Perdew Burke Ernzerhof Relativity Koelling-Harmon Dispersion off
REM Cut-off 340.0000 eV Grid scale 1.7500 Gmax 16.5316 1/A FBSC none
REM MP grid 3 2 3 Offset 0.000 0.000 0.000 No. kpts 4 Spacing 0.07
REM Total runtime: 7038.37 s
REM Overall efficiency: 78.6923 %
REM
REM 2LiFeSO4F.cell (6abdf011d38848201efe8211ff585b1c)
REM
REM compiler GCC version 4.9.2
REM options -cpp -iprefix /lustre/shared/ucl/apps/gcc/4.9.2/bin/../lib/gcc/x86_64-unknown-linux-gnu/4.9.2/ -mtune=corei7 -march=x86-64 -g -Og
REM COMMAND_LINE
REM seed 2135100605 -1827281982 1666256312 2011700891 1045335798 1556108114 -692891229 -766382942 2013700103 -26894645 -849459269 1109092197
REM
REM S 3|1.8|5|6|7|30:31:32(qc=5)
REM O 2|1.5|12|13|15|20:21(qc=5)
REM Li 1|1.3|8|9|10|10U:20(qc=5)
REM Fe 3|2.2|2.0|1.0|8|9|10|40:41:32(qc=5)
REM F 2|1.6|10|12|13|20:21(qc=5)
REM 
CELL 1.54180    4.83847    9.76348    6.04914   90.00000   90.00000   90.00000
LATT -1
SFAC Li O  F  S  Fe 
Li     1 -0.4995780000000  0.0000000000000 -0.2500000000000 1.0  -0.03
Li     1  0.4995780000000 -0.0000000000000  0.2500000000000 1.0  -0.03
O      2  0.0029930000000 -0.2649840000000  0.1968170000000 1.0   0.09
O      2 -0.2493570000000 -0.0808090000000  0.0027630000000 1.0   0.02
O      2 -0.0029930000000  0.2649840000000 -0.3031830000000 1.0   0.09
O      2  0.2493570000000  0.0808090000000 -0.4972370000000 1.0   0.02
O      2  0.0029930000000  0.2649840000000  0.3031830000000 1.0   0.09
O      2 -0.2493570000000  0.0808090000000  0.4972370000000 1.0   0.02
O      2 -0.0029930000000 -0.2649840000000 -0.1968170000000 1.0   0.09
O      2  0.2493570000000 -0.0808090000000 -0.0027630000000 1.0   0.02
F      3 -0.5000000000000  0.1681290000000  0.0000000000000 1.0   0.08
F      3 -0.5000000000000 -0.1681290000000 -0.5000000000000 1.0   0.08
S      4 -0.0000000000000 -0.1675300000000  0.0000000000000 1.0   0.01
S      4 -0.0000000000000  0.1675300000000  0.5000000000000 1.0   0.01
Fe     5 -0.0000000000000  0.2252570000000  0.0000000000000 1.0   3.73
Fe     5 -0.0000000000000 -0.2252570000000 -0.5000000000000 1.0   3.73
END
