TITL 2LiFeSO4F-200804-034624-0ffcf5 -0.0228 220.490458 -7.56510762E+003 8.00000 8.09743 16 (P21) n - 1
REM
REM Run started: Tue, 04 Aug 2020 04:30:47 +0100 in /lustre/scratch/uccabz1/launch_tmp/launcher_2020-08-04-02-46-20-831777
REM CASTEP 20.1 from code version af48c487+ pr-geom-scf-spinfix Tue Jun 2 15:39:59 2020 +0100
REM Functional Perdew Burke Ernzerhof Relativity Koelling-Harmon Dispersion off
REM Cut-off 340.0000 eV Grid scale 1.7500 Gmax 16.5316 1/A FBSC none
REM MP grid 4 3 2 Offset 0.000 0.000 0.000 No. kpts 8 Spacing 0.07
REM Total runtime: 3172.36 s
REM Overall efficiency: 89.5 %
REM
REM 2LiFeSO4F.cell (6abdf011d38848201efe8211ff585b1c)
REM
REM compiler GCC version 4.9.2
REM options -cpp -iprefix /lustre/shared/ucl/apps/gcc/4.9.2/bin/../lib/gcc/x86_64-unknown-linux-gnu/4.9.2/ -mtune=corei7 -march=x86-64 -g -Og
REM COMMAND_LINE
REM seed 1824268295 -1552347570 1433643715 -238389428 -2038001888 -923085613 2049029651 1500699920 -131214960 -1655698689 1854113033 1654699282
REM
REM S 3|1.8|5|6|7|30:31:32(qc=5)
REM O 2|1.5|12|13|15|20:21(qc=5)
REM Li 1|1.3|8|9|10|10U:20(qc=5)
REM Fe 3|2.2|2.0|1.0|8|9|10|40:41:32(qc=5)
REM F 2|1.6|10|12|13|20:21(qc=5)
REM 
CELL 1.54180    5.03443    5.76530    8.35644   90.00000  114.62325   90.00000
LATT -1
SFAC Li O  F  S  Fe 
Li     1  0.1979160000000  0.0816340000000 -0.0172680000000 1.0  -0.01
Li     1 -0.1979160000000 -0.4183660000000  0.0172680000000 1.0  -0.01
O      2 -0.1573300000000 -0.1017690000000 -0.4285810000000 1.0   0.08
O      2 -0.1136560000000 -0.1383180000000 -0.1211950000000 1.0   0.02
O      2 -0.1890420000000 -0.4830930000000 -0.3001500000000 1.0   0.05
O      2 -0.5850740000000 -0.1983790000000 -0.3664680000000 1.0   0.05
O      2  0.1573300000000  0.3982310000000  0.4285810000000 1.0   0.08
O      2  0.1136560000000  0.3616820000000  0.1211950000000 1.0   0.02
O      2  0.1890420000000  0.0169070000000  0.3001500000000 1.0   0.05
O      2  0.5850740000000  0.3016210000000  0.3664680000000 1.0   0.05
F      3 -0.2899680000000 -0.2785450000000  0.1811160000000 1.0   0.11
F      3  0.2899680000000  0.2214550000000 -0.1811160000000 1.0   0.11
S      4 -0.2639320000000 -0.2311860000000 -0.3047460000000 1.0   0.01
S      4  0.2639320000000  0.2688140000000  0.3047460000000 1.0   0.01
Fe     5 -0.0282290000000  0.2601070000000 -0.4083490000000 1.0   3.70
Fe     5  0.0282290000000 -0.2398930000000  0.4083490000000 1.0   3.70
END
