TITL 2LiFeSO4F-200818-195148-a9b83c 0.0437 251.739962 -7.56460590E+003 8.00000 8.17752 16 (P2) n - 1
REM
REM Run started: Tue, 18 Aug 2020 22:00:45 +0100 in /lustre/scratch/uccabz1/launch_tmp/launcher_2020-08-18-18-51-45-580402
REM CASTEP 20.1 from code version af48c487+ pr-geom-scf-spinfix Tue Jun 2 15:39:59 2020 +0100
REM Functional Perdew Burke Ernzerhof Relativity Koelling-Harmon Dispersion off
REM Cut-off 340.0000 eV Grid scale 1.7500 Gmax 16.5316 1/A FBSC none
REM MP grid 4 3 3 Offset 0.000 0.000 0.000 No. kpts 10 Spacing 0.07
REM Total runtime: 7829.67 s
REM Overall efficiency: 85.4 %
REM
REM 2LiFeSO4F.cell (6abdf011d38848201efe8211ff585b1c)
REM
REM compiler GCC version 4.9.2
REM options -cpp -iprefix /lustre/shared/ucl/apps/gcc/4.9.2/bin/../lib/gcc/x86_64-unknown-linux-gnu/4.9.2/ -mtune=corei7 -march=x86-64 -g -Og
REM COMMAND_LINE
REM seed -1918227033 -1429249756 -648724897 -2033260197 -175942711 -1703298986 1573987129 -769292493 1842893328 884067557 1899781847 -878820502
REM
REM S 3|1.8|5|6|7|30:31:32(qc=5)
REM O 2|1.5|12|13|15|20:21(qc=5)
REM Li 1|1.3|8|9|10|10U:20(qc=5)
REM Fe 3|2.2|2.0|1.0|8|9|10|40:41:32(qc=5)
REM F 2|1.6|10|12|13|20:21(qc=5)
REM 
CELL 1.54180    4.68656    7.87729    9.71569  135.42392   90.00000   90.00000
LATT -1
SFAC Li O  F  S  Fe 
Li     1  0.3573770000000  0.2657550000000 -0.0884150000000 1.0  -0.01
Li     1  0.3573770000000 -0.2657550000000  0.0884150000000 1.0  -0.01
O      2 -0.1720810000000 -0.2341880000000 -0.2451020000000 1.0   0.01
O      2 -0.2468320000000 -0.2203870000000 -0.4909930000000 1.0   0.13
O      2  0.1920420000000 -0.0670690000000 -0.3078790000000 1.0   0.09
O      2 -0.2456730000000  0.1618000000000 -0.1361500000000 1.0   0.01
O      2 -0.1720810000000  0.2341880000000  0.2451020000000 1.0   0.01
O      2 -0.2468320000000  0.2203870000000  0.4909930000000 1.0   0.13
O      2  0.1920420000000  0.0670690000000  0.3078790000000 1.0   0.09
O      2 -0.2456730000000 -0.1618000000000  0.1361500000000 1.0   0.01
F      3  0.3090930000000  0.5662820000000  0.1736130000000 1.0   0.10
F      3  0.3090930000000 -0.5662820000000 -0.1736130000000 1.0   0.10
S      4 -0.1338840000000 -0.0886170000000 -0.2845690000000 1.0   0.01
S      4 -0.1338840000000  0.0886170000000  0.2845690000000 1.0   0.01
Fe     5  0.3590980000000  0.2733820000000 -0.4336620000000 1.0   3.66
Fe     5  0.3590980000000 -0.2733820000000  0.4336620000000 1.0   3.66
END
