TITL 2LiFeSO4F-200818-221100-960ace -0.0544 207.582430 -7.56539794E+003 8.00000 8.12716 16 (P21) n - 1
REM
REM Run started: Tue, 18 Aug 2020 23:47:35 +0100 in /lustre/scratch/uccabz1/launch_tmp/launcher_2020-08-18-21-10-57-260928
REM CASTEP 20.1 from code version af48c487+ pr-geom-scf-spinfix Tue Jun 2 15:39:59 2020 +0100
REM Functional Perdew Burke Ernzerhof Relativity Koelling-Harmon Dispersion off
REM Cut-off 340.0000 eV Grid scale 1.7500 Gmax 16.5316 1/A FBSC none
REM MP grid 4 4 2 Offset 0.000 0.000 0.000 No. kpts 8 Spacing 0.07
REM Total runtime: 6768.33 s
REM Overall efficiency: 77.9167 %
REM
REM 2LiFeSO4F.cell (6abdf011d38848201efe8211ff585b1c)
REM
REM compiler GCC version 4.9.2
REM options -cpp -iprefix /lustre/shared/ucl/apps/gcc/4.9.2/bin/../lib/gcc/x86_64-unknown-linux-gnu/4.9.2/ -mtune=corei7 -march=x86-64 -g -Og
REM COMMAND_LINE
REM seed 725622176 217329280 -731860440 -1342227774 -713942747 2087099123 480454587 2037446048 -673103778 -1982282809 1445639199 698230638
REM
REM S 3|1.8|5|6|7|30:31:32(qc=5)
REM O 2|1.5|12|13|15|20:21(qc=5)
REM Li 1|1.3|8|9|10|10U:20(qc=5)
REM Fe 3|2.2|2.0|1.0|8|9|10|40:41:32(qc=5)
REM F 2|1.6|10|12|13|20:21(qc=5)
REM 
CELL 1.54180    4.98035    5.17994    9.02657   90.00000   90.00000   63.05243
LATT -1
SFAC Li O  F  S  Fe 
Li     1  0.1794020000000 -0.2091670000000 -0.0289490000000 1.0  -0.03
Li     1 -0.1794020000000  0.2091670000000  0.4710510000000 1.0  -0.03
O      2 -0.1296990000000 -0.4424910000000 -0.5235130000000 1.0   0.04
O      2 -0.1313150000000 -0.0800390000000 -0.3444440000000 1.0   0.02
O      2  0.1859930000000 -0.1950590000000 -0.5575550000000 1.0   0.05
O      2  0.3125350000000 -0.5702100000000 -0.3651330000000 1.0   0.05
O      2  0.1296990000000  0.4424910000000 -0.0235130000000 1.0   0.04
O      2  0.1313150000000  0.0800390000000  0.1555560000000 1.0   0.02
O      2 -0.1859930000000  0.1950590000000 -0.0575550000000 1.0   0.05
O      2 -0.3125350000000  0.5702100000000  0.1348670000000 1.0   0.05
F      3  0.4358090000000 -0.1627650000000 -0.1544430000000 1.0   0.13
F      3 -0.4358090000000  0.1627650000000  0.3455570000000 1.0   0.13
S      4  0.0602020000000 -0.3262250000000 -0.4438420000000 1.0   0.02
S      4 -0.0602020000000  0.3262250000000  0.0561580000000 1.0   0.02
Fe     5 -0.4895030000000 -0.1685750000000  0.3130950000000 1.0   3.72
Fe     5  0.4895030000000  0.1685750000000 -0.1869050000000 1.0   3.72
END
