TITL 2LiFeSO4F-200804-054205-4ba212 0.0207 242.987143 -7.56533129E+003 8.00042 8.17756 16 (Cc) n - 1
REM
REM Run started: Tue, 04 Aug 2020 09:19:45 +0100 in /lustre/scratch/uccabz1/launch_tmp/launcher_2020-08-04-04-42-01-184249
REM CASTEP 20.1 from code version af48c487+ pr-geom-scf-spinfix Tue Jun 2 15:39:59 2020 +0100
REM Functional Perdew Burke Ernzerhof Relativity Koelling-Harmon Dispersion off
REM Cut-off 340.0000 eV Grid scale 1.7500 Gmax 16.5316 1/A FBSC none
REM MP grid 3 2 4 Offset 0.000 0.000 0.000 No. kpts 12 Spacing 0.07
REM Total runtime: 13125.1 s
REM Overall efficiency: 87.7692 %
REM
REM 2LiFeSO4F.cell (6abdf011d38848201efe8211ff585b1c)
REM
REM compiler GCC version 4.9.2
REM options -cpp -iprefix /lustre/shared/ucl/apps/gcc/4.9.2/bin/../lib/gcc/x86_64-unknown-linux-gnu/4.9.2/ -mtune=corei7 -march=x86-64 -g -Og
REM COMMAND_LINE
REM seed -1266045054 1832726392 -1289549892 -960585633 -1023790177 -1475384277 1409266291 1269776360 459060157 745538132 -1623939021 -355111078
REM
REM S 3|1.8|5|6|7|30:31:32(qc=5)
REM O 2|1.5|12|13|15|20:21(qc=5)
REM Li 1|1.3|8|9|10|10U:20(qc=5)
REM Fe 3|2.2|2.0|1.0|8|9|10|40:41:32(qc=5)
REM F 2|1.6|10|12|13|20:21(qc=5)
REM 
CELL 1.54180    7.01198    8.26740    5.84936   81.69055   53.17450   64.90795
LATT -1
SFAC Li O  F  S  Fe 
Li     1  0.1966950000000 -0.2624620000000  0.2509100000000 1.0  -0.02
Li     1 -0.1851430000000  0.2375380000000 -0.2490900000000 1.0  -0.02
O      2 -0.1439060000000 -0.2459570000000 -0.3406360000000 1.0   0.04
O      2 -0.4953500000000  0.0161590000000 -0.3261420000000 1.0   0.08
O      2 -0.3318910000000  0.0471020000000 -0.0715150000000 1.0   0.05
O      2 -0.5994950000000 -0.1236050000000  0.1119080000000 1.0   0.01
O      2 -0.2695010000000  0.2540430000000  0.1593640000000 1.0   0.04
O      2 -0.1946670000000  0.5161590000000  0.1738580000000 1.0   0.08
O      2 -0.6436950000000  0.5471020000000  0.4284850000000 1.0   0.05
O      2 -0.3888080000000  0.3763950000000  0.6119080000000 1.0   0.01
F      3  0.0331580000000 -0.2029190000000  0.0722860000000 1.0   0.14
F      3  0.0974750000000  0.2970810000000 -0.4277140000000 1.0   0.14
S      4 -0.3986030000000 -0.0787530000000 -0.1503970000000 1.0   0.01
S      4 -0.3722470000000  0.4212470000000  0.3496030000000 1.0   0.01
Fe     5  0.0294790000000 -0.4934960000000 -0.2466320000000 1.0   3.69
Fe     5 -0.2893520000000  1.0065040000000  0.2533680000000 1.0   3.69
END
