TITL 2LiFeSO4F-200804-053853-041fb6 0.0067 195.060299 -7.56456772E+003 -8.00000 8.09266 16 (P21212) n - 1
REM
REM Run started: Tue, 04 Aug 2020 06:53:04 +0100 in /lustre/scratch/uccabz1/launch_tmp/launcher_2020-08-04-04-38-51-272291
REM CASTEP 20.1 from code version af48c487+ pr-geom-scf-spinfix Tue Jun 2 15:39:59 2020 +0100
REM Functional Perdew Burke Ernzerhof Relativity Koelling-Harmon Dispersion off
REM Cut-off 340.0000 eV Grid scale 1.7500 Gmax 16.5316 1/A FBSC none
REM MP grid 4 4 2 Offset 0.000 0.000 0.000 No. kpts 4 Spacing 0.07
REM Total runtime: 4510.82 s
REM Overall efficiency: 74.5556 %
REM
REM 2LiFeSO4F.cell (6abdf011d38848201efe8211ff585b1c)
REM
REM compiler GCC version 4.9.2
REM options -cpp -iprefix /lustre/shared/ucl/apps/gcc/4.9.2/bin/../lib/gcc/x86_64-unknown-linux-gnu/4.9.2/ -mtune=corei7 -march=x86-64 -g -Og
REM COMMAND_LINE
REM seed 165229704 1669581086 1464990370 1359230822 -771495097 -1137265915 -1129893655 1050459491 1470431641 98343135 2058157495 1540882774
REM
REM S 3|1.8|5|6|7|30:31:32(qc=5)
REM O 2|1.5|12|13|15|20:21(qc=5)
REM Li 1|1.3|8|9|10|10U:20(qc=5)
REM Fe 3|2.2|2.0|1.0|8|9|10|40:41:32(qc=5)
REM F 2|1.6|10|12|13|20:21(qc=5)
REM 
CELL 1.54180    4.01652    4.46825   10.86880   90.00000   90.00000   90.00000
LATT -1
SFAC Li O  F  S  Fe 
Li     1  0.5000000000000 -0.0000000000000  0.3396780000000 1.0   0.01
Li     1 -0.0000000000000 -0.5000000000000 -0.3396780000000 1.0   0.01
O      2 -0.2759620000000 -0.1878730000000 -0.2173500000000 1.0  -0.08
O      2 -0.1926800000000 -0.2912410000000 -0.6196490000000 1.0  -0.01
O      2  0.2759620000000  0.1878730000000 -0.2173500000000 1.0  -0.08
O      2  0.1926800000000  0.2912410000000 -0.6196490000000 1.0  -0.01
O      2  0.2240380000000 -0.3121270000000  0.2173500000000 1.0  -0.08
O      2  0.3073200000000 -0.2087590000000  0.6196490000000 1.0  -0.01
O      2 -0.2240380000000  0.3121270000000  0.2173500000000 1.0  -0.08
O      2 -0.3073200000000  0.2087590000000  0.6196490000000 1.0  -0.01
F      3 -0.5000000000000 -0.0000000000000  0.0141150000000 1.0  -0.08
F      3 -0.0000000000000  0.5000000000000 -0.0141150000000 1.0  -0.08
S      4 -0.0000000000000  0.5000000000000  0.3036310000000 1.0  -0.00
S      4  0.5000000000000 -0.0000000000000 -0.3036310000000 1.0  -0.00
Fe     5 -0.0000000000000 -0.0000000000000 -0.0797160000000 1.0  -3.75
Fe     5  0.5000000000000  0.5000000000000  0.0797160000000 1.0  -3.75
END
