TITL 2LiFeSO4F-200819-022847-9d3d4d 0.0040 226.055616 -7.56528474E+003 8.00000 8.10108 16 (C2) n - 1
REM
REM Run started: Wed, 19 Aug 2020 05:54:09 +0100 in /lustre/scratch/uccabz1/launch_tmp/launcher_2020-08-19-01-28-45-168510
REM CASTEP 20.1 from code version af48c487+ pr-geom-scf-spinfix Tue Jun 2 15:39:59 2020 +0100
REM Functional Perdew Burke Ernzerhof Relativity Koelling-Harmon Dispersion off
REM Cut-off 340.0000 eV Grid scale 1.7500 Gmax 16.5316 1/A FBSC none
REM MP grid 3 3 3 Offset 0.000 0.000 0.000 No. kpts 10 Spacing 0.07
REM Total runtime: 13404.4 s
REM Overall efficiency: 95.0714 %
REM
REM 2LiFeSO4F.cell (6abdf011d38848201efe8211ff585b1c)
REM
REM compiler GCC version 4.9.2
REM options -cpp -iprefix /lustre/shared/ucl/apps/gcc/4.9.2/bin/../lib/gcc/x86_64-unknown-linux-gnu/4.9.2/ -mtune=corei7 -march=x86-64 -g -Og
REM COMMAND_LINE
REM seed 108247637 327187714 -1040334561 1173501534 -1703537108 -903536291 -754926198 -438293094 1065220363 881395674 -1523561814 -1341000449
REM
REM S 3|1.8|5|6|7|30:31:32(qc=5)
REM O 2|1.5|12|13|15|20:21(qc=5)
REM Li 1|1.3|8|9|10|10U:20(qc=5)
REM Fe 3|2.2|2.0|1.0|8|9|10|40:41:32(qc=5)
REM F 2|1.6|10|12|13|20:21(qc=5)
REM 
CELL 1.54180    6.03956    7.63225    6.21983   52.15400   88.05860   86.83475
LATT -1
SFAC Li O  F  S  Fe 
Li     1 -0.2425020000000  0.0060710000000  0.4898220000000 1.0  -0.02
Li     1  0.2425020000000 -0.4958930000000  0.4898220000000 1.0  -0.02
O      2  0.2479940000000 -0.3292890000000 -0.3427180000000 1.0   0.05
O      2  0.2739300000000  0.0621330000000 -0.7246850000000 1.0   0.08
O      2  0.4497070000000 -0.0857930000000 -0.2875080000000 1.0   0.06
O      2  0.0403590000000 -0.0450950000000 -0.3326140000000 1.0   0.02
O      2 -0.2479940000000  0.6720070000000 -0.3427180000000 1.0   0.05
O      2 -0.2739300000000  0.6625520000000 -0.7246850000000 1.0   0.08
O      2 -0.4497070000000  0.3733010000000 -0.2875080000000 1.0   0.06
O      2 -0.0403590000000  0.3777090000000 -0.3326140000000 1.0   0.02
F      3  0.3119440000000 -0.4927980000000  0.2029050000000 1.0   0.10
F      3 -0.3119440000000  0.2898930000000  0.2029050000000 1.0   0.10
S      4  0.2479630000000 -0.0977720000000 -0.4179350000000 1.0   0.01
S      4 -0.2479630000000  0.5157080000000 -0.4179350000000 1.0   0.01
Fe     5  0.3733870000000  0.3700880000000  0.0087650000000 1.0   3.70
Fe     5 -0.3733870000000 -0.3788530000000  0.0087650000000 1.0   3.70
END
