TITL 2LiFeSO4F-200804-025846-e46e1a -0.0144 231.374170 -7.56329930E+003 7.99578 8.06066 16 (P21/m) n - 1
REM
REM Run started: Tue, 04 Aug 2020 03:51:57 +0100 in /lustre/scratch/uccabz1/launch_tmp/launcher_2020-08-04-01-58-44-760639
REM CASTEP 20.1 from code version af48c487+ pr-geom-scf-spinfix Tue Jun 2 15:39:59 2020 +0100
REM Functional Perdew Burke Ernzerhof Relativity Koelling-Harmon Dispersion off
REM Cut-off 340.0000 eV Grid scale 1.7500 Gmax 16.5316 1/A FBSC none
REM MP grid 3 2 3 Offset 0.000 0.000 0.000 No. kpts 6 Spacing 0.07
REM Total runtime: 3718.82 s
REM Overall efficiency: 79.1429 %
REM
REM 2LiFeSO4F.cell (6abdf011d38848201efe8211ff585b1c)
REM
REM compiler GCC version 4.9.2
REM options -cpp -iprefix /lustre/shared/ucl/apps/gcc/4.9.2/bin/../lib/gcc/x86_64-unknown-linux-gnu/4.9.2/ -mtune=corei7 -march=x86-64 -g -Og
REM COMMAND_LINE
REM seed 1144531418 1422468693 1287257255 1615378822 671020910 -721740029 -1354900768 1266572621 -1318670920 -1552856926 -977567966 2146599815
REM
REM S 3|1.8|5|6|7|30:31:32(qc=5)
REM O 2|1.5|12|13|15|20:21(qc=5)
REM Li 1|1.3|8|9|10|10U:20(qc=5)
REM Fe 3|2.2|2.0|1.0|8|9|10|40:41:32(qc=5)
REM F 2|1.6|10|12|13|20:21(qc=5)
REM 
CELL 1.54180    5.20844    8.63243    5.38670   90.00000   90.00000  107.19076
LATT -1
SFAC Li O  F  S  Fe 
Li     1  0.0492470000000 -0.2320560000000  0.2500000000000 1.0   0.01
Li     1 -0.0492470000000  0.2320560000000 -0.2500000000000 1.0   0.01
O      2 -0.3666010000000  0.1427460000000 -0.0074060000000 1.0   0.31
O      2 -0.1992580000000  0.6090680000000 -0.0198510000000 1.0   0.00
O      2  0.3666010000000 -0.1427460000000 -0.5074060000000 1.0   0.31
O      2  0.1992580000000 -0.6090680000000 -0.5198510000000 1.0   0.00
O      2  0.3666010000000 -0.1427460000000  0.0074060000000 1.0   0.31
O      2  0.1992580000000 -0.6090680000000  0.0198510000000 1.0   0.00
O      2 -0.3666010000000  0.1427460000000  0.5074060000000 1.0   0.31
O      2 -0.1992580000000  0.6090680000000  0.5198510000000 1.0   0.00
F      3  0.1090110000000  0.0652920000000 -0.2500000000000 1.0   0.21
F      3 -0.1090110000000 -0.0652920000000  0.2500000000000 1.0   0.21
S      4  0.2375110000000  0.3087250000000  0.2500000000000 1.0   0.01
S      4 -0.2375110000000 -0.3087250000000 -0.2500000000000 1.0   0.01
Fe     5  0.5673350000000 -0.0013670000000  0.2500000000000 1.0   3.14
Fe     5 -0.5673350000000  0.0013670000000 -0.2500000000000 1.0   3.14
END
