TITL 2LiFeSO4F-200819-004758-3eb512 -0.0017 412.028274 -7.56404535E+003 8.00000 8.21405 16 (Pm) n - 1
REM
REM Run started: Wed, 19 Aug 2020 08:25:15 +0100 in /lustre/scratch/uccabz1/launch_tmp/launcher_2020-08-18-23-47-56-136489
REM CASTEP 20.1 from code version af48c487+ pr-geom-scf-spinfix Tue Jun 2 15:39:59 2020 +0100
REM Functional Perdew Burke Ernzerhof Relativity Koelling-Harmon Dispersion off
REM Cut-off 340.0000 eV Grid scale 1.7500 Gmax 16.5316 1/A FBSC none
REM MP grid 4 4 1 Offset 0.000 0.000 0.000 No. kpts 8 Spacing 0.07
REM Total runtime: 31394.9 s
REM Overall efficiency: 94.25 %
REM
REM 2LiFeSO4F.cell (6abdf011d38848201efe8211ff585b1c)
REM
REM compiler GCC version 4.9.2
REM options -cpp -iprefix /lustre/shared/ucl/apps/gcc/4.9.2/bin/../lib/gcc/x86_64-unknown-linux-gnu/4.9.2/ -mtune=corei7 -march=x86-64 -g -Og
REM COMMAND_LINE
REM seed -2057876827 -2066603943 1469253424 964611423 -1603104170 -282026628 2008780832 -1316767612 2141622810 -1750174460 -1550990241 -1847594609
REM
REM S 3|1.8|5|6|7|30:31:32(qc=5)
REM O 2|1.5|12|13|15|20:21(qc=5)
REM Li 1|1.3|8|9|10|10U:20(qc=5)
REM Fe 3|2.2|2.0|1.0|8|9|10|40:41:32(qc=5)
REM F 2|1.6|10|12|13|20:21(qc=5)
REM 
CELL 1.54180    5.75766    5.37483   17.26199   90.00000   90.00000  129.52884
LATT -1
SFAC Li O  F  S  Fe 
Li     1  0.4722660000000  0.2254170000000  0.1332090000000 1.0  -0.01
Li     1  0.4722660000000  0.2254170000000 -0.1332090000000 1.0  -0.01
O      2  0.0446250000000 -0.0359040000000 -0.1264150000000 1.0   0.01
O      2 -0.4308710000000 -0.4083260000000 -0.1962100000000 1.0   0.06
O      2 -0.0518830000000  0.1187890000000 -0.2516050000000 1.0   0.06
O      2 -0.3087940000000  0.0750090000000 -0.1320960000000 1.0   0.01
O      2  0.0446250000000 -0.0359040000000  0.1264150000000 1.0   0.01
O      2 -0.4308710000000 -0.4083260000000  0.1962100000000 1.0   0.06
O      2 -0.0518830000000  0.1187890000000  0.2516050000000 1.0   0.06
O      2 -0.3087940000000  0.0750090000000  0.1320960000000 1.0   0.01
F      3  0.4433140000000 -0.3460930000000  0.3885630000000 1.0   0.24
F      3  0.4433140000000 -0.3460930000000 -0.3885630000000 1.0   0.24
S      4 -0.1786580000000 -0.0508860000000 -0.1738330000000 1.0   0.01
S      4 -0.1786580000000 -0.0508860000000  0.1738330000000 1.0   0.01
Fe     5 -0.6708590000000 -0.5228080000000 -0.2962460000000 1.0   3.62
Fe     5 -0.6708590000000 -0.5228080000000  0.2962460000000 1.0   3.62
END
