TITL 2LiFeSO4F-200818-225343-5136c7 0.0186 313.748896 -7.56447167E+003 8.00000 8.18558 16 (Pc) n - 1
REM
REM Run started: Wed, 19 Aug 2020 01:35:54 +0100 in /lustre/scratch/uccabz1/launch_tmp/launcher_2020-08-18-21-53-39-453174
REM CASTEP 20.1 from code version af48c487+ pr-geom-scf-spinfix Tue Jun 2 15:39:59 2020 +0100
REM Functional Perdew Burke Ernzerhof Relativity Koelling-Harmon Dispersion off
REM Cut-off 340.0000 eV Grid scale 1.7500 Gmax 16.5316 1/A FBSC none
REM MP grid 4 2 3 Offset 0.000 0.000 0.000 No. kpts 6 Spacing 0.07
REM Total runtime: 11024.7 s
REM Overall efficiency: 74.0833 %
REM
REM 2LiFeSO4F.cell (6abdf011d38848201efe8211ff585b1c)
REM
REM compiler GCC version 4.9.2
REM options -cpp -iprefix /lustre/shared/ucl/apps/gcc/4.9.2/bin/../lib/gcc/x86_64-unknown-linux-gnu/4.9.2/ -mtune=corei7 -march=x86-64 -g -Og
REM COMMAND_LINE
REM seed 1518083367 -1688985202 -562920937 -1423919435 -1517414066 -1482150638 -1668319915 1389917442 1809724632 415016668 -596572487 1546200169
REM
REM S 3|1.8|5|6|7|30:31:32(qc=5)
REM O 2|1.5|12|13|15|20:21(qc=5)
REM Li 1|1.3|8|9|10|10U:20(qc=5)
REM Fe 3|2.2|2.0|1.0|8|9|10|40:41:32(qc=5)
REM F 2|1.6|10|12|13|20:21(qc=5)
REM 
CELL 1.54180    4.73390    9.30487    8.58197   90.00000  123.90378   90.00000
LATT -1
SFAC Li O  F  S  Fe 
Li     1  0.1199230000000  0.2177670000000  0.4076660000000 1.0  -0.01
Li     1  0.6199230000000 -0.2177670000000  0.4076660000000 1.0  -0.01
O      2  0.6641520000000  0.1354060000000  0.2652530000000 1.0   0.01
O      2  0.4641590000000  0.3430670000000  0.0529580000000 1.0   0.08
O      2  0.2855720000000  0.3158600000000  0.2733610000000 1.0   0.02
O      2  0.0550560000000  0.1551630000000  0.0029650000000 1.0   0.09
O      2  0.1641520000000 -0.1354060000000  0.2652530000000 1.0   0.01
O      2 -0.0358410000000 -0.3430670000000  0.0529580000000 1.0   0.08
O      2 -0.2144280000000 -0.3158600000000  0.2733610000000 1.0   0.02
O      2 -0.4449440000000 -0.1551630000000  0.0029650000000 1.0   0.09
F      3  0.3367100000000  0.2460100000000 -0.3461650000000 1.0   0.13
F      3 -0.1632900000000 -0.2460100000000 -0.3461650000000 1.0   0.13
S      4  0.3749150000000  0.2363900000000  0.1559860000000 1.0   0.01
S      4 -0.1250850000000 -0.2363900000000  0.1559860000000 1.0   0.01
Fe     5 -0.3663820000000  0.2581870000000 -0.0882880000000 1.0   3.66
Fe     5  0.1336180000000 -0.2581870000000 -0.0882880000000 1.0   3.66
END
