TITL 2LiFeSO4F-200819-011949-b0b006 0.0038 262.563498 -7.56167840E+003 8.00000 8.14092 16 (Pba2) n - 1
REM
REM Run started: Wed, 19 Aug 2020 01:27:09 +0100 in /lustre/scratch/uccabz1/launch_tmp/launcher_2020-08-19-00-19-46-547300
REM CASTEP 20.1 from code version af48c487+ pr-geom-scf-spinfix Tue Jun 2 15:39:59 2020 +0100
REM Functional Perdew Burke Ernzerhof Relativity Koelling-Harmon Dispersion off
REM Cut-off 340.0000 eV Grid scale 1.7500 Gmax 16.5316 1/A FBSC none
REM MP grid 4 2 2 Offset 0.000 0.000 0.000 No. kpts 2 Spacing 0.07
REM Total runtime: 695.01 s
REM Overall efficiency: 65 %
REM
REM 2LiFeSO4F.cell (6abdf011d38848201efe8211ff585b1c)
REM
REM compiler GCC version 4.9.2
REM options -cpp -iprefix /lustre/shared/ucl/apps/gcc/4.9.2/bin/../lib/gcc/x86_64-unknown-linux-gnu/4.9.2/ -mtune=corei7 -march=x86-64 -g -Og
REM COMMAND_LINE
REM seed 1324958030 387639646 -1131465036 2101242052 1894266341 -1697727189 -1022751320 689549895 1121214055 372950232 -1861161389 1987892617
REM
REM S 3|1.8|5|6|7|30:31:32(qc=5)
REM O 2|1.5|12|13|15|20:21(qc=5)
REM Li 1|1.3|8|9|10|10U:20(qc=5)
REM Fe 3|2.2|2.0|1.0|8|9|10|40:41:32(qc=5)
REM F 2|1.6|10|12|13|20:21(qc=5)
REM 
CELL 1.54180    3.76496    9.13676    7.63276   90.00000   90.00000   90.00000
LATT -1
SFAC Li O  F  S  Fe 
Li     1 -0.5000000000000  0.0000000000000 -0.3114310000000 1.0  -0.02
Li     1 -0.0000000000000  0.5000000000000 -0.3114310000000 1.0  -0.02
O      2  0.7834140000000  0.0974110000000  0.3005970000000 1.0   0.11
O      2  0.2102580000000  0.0999060000000  0.5376490000000 1.0   0.01
O      2 -0.7834140000000 -0.0974110000000  0.3005970000000 1.0   0.11
O      2 -0.2102580000000 -0.0999060000000  0.5376490000000 1.0   0.01
O      2 -0.2834140000000 -0.4025890000000  0.3005970000000 1.0   0.11
O      2  0.2897420000000 -0.4000940000000  0.5376490000000 1.0   0.01
O      2  0.2834140000000  0.4025890000000  0.3005970000000 1.0   0.11
O      2 -0.2897420000000  0.4000940000000  0.5376490000000 1.0   0.01
F      3 -0.0000000000000  0.0000000000000 -0.0283510000000 1.0   0.05
F      3 -0.5000000000000 -0.5000000000000 -0.0283510000000 1.0   0.05
S      4 -0.0000000000000  0.0000000000000  0.4239380000000 1.0   0.00
S      4 -0.5000000000000  0.5000000000000  0.4239380000000 1.0   0.00
Fe     5 -0.0000000000000 -0.5000000000000  0.1184510000000 1.0   3.72
Fe     5  0.5000000000000  0.0000000000000  0.1184510000000 1.0   3.72
END
