TITL 2LiFeSO4F-200804-045342-83ebc8 -0.0037 193.447457 -7.56471547E+003 8.00000 8.11353 16 (P21) n - 1
REM
REM Run started: Tue, 04 Aug 2020 05:38:42 +0100 in /lustre/scratch/uccabz1/launch_tmp/launcher_2020-08-04-03-53-40-339132
REM CASTEP 20.1 from code version af48c487+ pr-geom-scf-spinfix Tue Jun 2 15:39:59 2020 +0100
REM Functional Perdew Burke Ernzerhof Relativity Koelling-Harmon Dispersion off
REM Cut-off 340.0000 eV Grid scale 1.7500 Gmax 16.5316 1/A FBSC none
REM MP grid 4 3 2 Offset 0.000 0.000 0.000 No. kpts 8 Spacing 0.07
REM Total runtime: 2976.31 s
REM Overall efficiency: 93.1429 %
REM
REM 2LiFeSO4F.cell (6abdf011d38848201efe8211ff585b1c)
REM
REM compiler GCC version 4.9.2
REM options -cpp -iprefix /lustre/shared/ucl/apps/gcc/4.9.2/bin/../lib/gcc/x86_64-unknown-linux-gnu/4.9.2/ -mtune=corei7 -march=x86-64 -g -Og
REM COMMAND_LINE
REM seed -1823766955 1688052989 -850612002 -848380447 -322444392 232248019 470016233 1415750596 1179436345 -226683147 758318526 1388582686
REM
REM S 3|1.8|5|6|7|30:31:32(qc=5)
REM O 2|1.5|12|13|15|20:21(qc=5)
REM Li 1|1.3|8|9|10|10U:20(qc=5)
REM Fe 3|2.2|2.0|1.0|8|9|10|40:41:32(qc=5)
REM F 2|1.6|10|12|13|20:21(qc=5)
REM 
CELL 1.54180    4.03738    5.42618    9.14305   90.00000  105.03224   90.00000
LATT -1
SFAC Li O  F  S  Fe 
Li     1  0.3343730000000 -0.1188910000000  0.0737940000000 1.0  -0.01
Li     1 -0.3343730000000  0.3811090000000 -0.0737940000000 1.0  -0.01
O      2  0.1975070000000  0.3550410000000  0.3602530000000 1.0   0.04
O      2  0.5502910000000  0.1191090000000  0.2286090000000 1.0   0.04
O      2  0.5217930000000  0.5879290000000  0.2137640000000 1.0   0.04
O      2  0.0559600000000  0.3254340000000  0.0776770000000 1.0   0.02
O      2 -0.1975070000000 -0.1449590000000 -0.3602530000000 1.0   0.04
O      2 -0.5502910000000 -0.3808910000000 -0.2286090000000 1.0   0.04
O      2 -0.5217930000000  0.0879290000000 -0.2137640000000 1.0   0.04
O      2 -0.0559600000000 -0.1745660000000 -0.0776770000000 1.0   0.02
F      3  0.1616430000000 -0.1498720000000  0.4169560000000 1.0   0.13
F      3 -0.1616430000000  0.3501280000000 -0.4169560000000 1.0   0.13
S      4  0.3270510000000  0.3490440000000  0.2221720000000 1.0   0.01
S      4 -0.3270510000000 -0.1509560000000 -0.2221720000000 1.0   0.01
Fe     5  0.3403370000000  0.3494110000000 -0.4062550000000 1.0   3.74
Fe     5 -0.3403370000000 -0.1505890000000  0.4062550000000 1.0   3.74
END
