TITL 2LiFeSO4F-200818-193558-d59475 -0.0034 263.120900 -7.56246565E+003 8.00000 8.16958 16 (Aea2) n - 1
REM
REM Run started: Tue, 18 Aug 2020 20:18:32 +0100 in /scratch/scratch/uccabz1/launch_tmp/launcher_2020-08-18-18-35-56-010309
REM CASTEP 19.11| from code version Version unavailable
REM Functional Perdew Burke Ernzerhof Relativity Koelling-Harmon Dispersion off
REM Cut-off 340.0000 eV Grid scale 1.7500 Gmax 16.5316 1/A FBSC none
REM MP grid 4 2 3 Offset 0.000 0.000 0.000 No. kpts 6 Spacing 0.07
REM Total runtime: 3171.46 s
REM Overall efficiency: 77.5 %
REM
REM 2LiFeSO4F.cell (6abdf011d38848201efe8211ff585b1c)
REM
REM compiler GCC version 4.9.2
REM options -cpp -iprefix /scratch/UCL/applications/gcc/4.9.2/bin/../lib/gcc/x86_64-unknown-linux-gnu/4.9.2/ -mtune=corei7 -march=x86-64 -g -O2
REM COMMAND_LINE
REM seed 808753635 2092687826 2017324312 -391352948 -612763274 -1476214820 511908679 -654432958 -55648386 1383979126 -274124761 507336485
REM
REM S 3|1.8|5|6|7|30:31:32(qc=5)
REM O 2|1.5|12|13|15|20:21(qc=5)
REM Li 1|1.3|8|9|10|10U:20(qc=5)
REM Fe 3|2.2|2.0|1.0|8|9|10|40:41:32(qc=5)
REM F 2|1.6|10|12|13|20:21(qc=5)
REM 
CELL 1.54180    3.89991    9.44739    7.40293   90.00000  105.27209   90.00000
LATT -1
SFAC Li O  F  S  Fe 
Li     1  0.3592670000000 -0.0000000000000 -0.2814660000000 1.0  -0.02
Li     1 -0.1407330000000 -0.5000000000000 -0.2814660000000 1.0  -0.02
O      2 -0.1222840000000  0.0916460000000  0.3170870000000 1.0   0.10
O      2 -0.0161450000000 -0.0983010000000  0.5678150000000 1.0   0.01
O      2 -0.5606290000000 -0.0916460000000  0.3170870000000 1.0   0.10
O      2 -0.4160400000000  0.0983010000000  0.5678150000000 1.0   0.01
O      2 -0.0606290000000  0.5916460000000  0.3170870000000 1.0   0.10
O      2  0.0839600000000  0.4016990000000  0.5678150000000 1.0   0.01
O      2  0.3777160000000 -0.5916460000000  0.3170870000000 1.0   0.10
O      2  0.4838550000000 -0.4016990000000  0.5678150000000 1.0   0.01
F      3  0.4877410000000 -0.0000000000000 -0.0245190000000 1.0   0.04
F      3 -0.0122590000000 -0.5000000000000 -0.0245190000000 1.0   0.04
S      4 -0.2763280000000 -0.0000000000000  0.4473440000000 1.0   0.00
S      4  0.2236720000000 -0.5000000000000  0.4473440000000 1.0   0.00
Fe     5  0.0611550000000 -0.0000000000000  0.1223110000000 1.0   3.75
Fe     5 -0.4388450000000 -0.5000000000000  0.1223110000000 1.0   3.75
END
