TITL 2LiFeSO4F-200804-052854-1f43d3 0.0208 181.347947 -7.55753756E+003 3.90049 5.00825 16 (C2/m) n - 1
REM
REM Run started: Tue, 04 Aug 2020 07:23:03 +0100 in /lustre/scratch/uccabz1/launch_tmp/launcher_2020-08-04-04-28-50-544370
REM CASTEP 20.1 from code version af48c487+ pr-geom-scf-spinfix Tue Jun 2 15:39:59 2020 +0100
REM Functional Perdew Burke Ernzerhof Relativity Koelling-Harmon Dispersion off
REM Cut-off 340.0000 eV Grid scale 1.7500 Gmax 16.5316 1/A FBSC none
REM MP grid 3 3 4 Offset 0.000 0.000 0.000 No. kpts 12 Spacing 0.07
REM Total runtime: 7301.58 s
REM Overall efficiency: 81.8333 %
REM
REM 2LiFeSO4F.cell (6abdf011d38848201efe8211ff585b1c)
REM
REM compiler GCC version 4.9.2
REM options -cpp -iprefix /lustre/shared/ucl/apps/gcc/4.9.2/bin/../lib/gcc/x86_64-unknown-linux-gnu/4.9.2/ -mtune=corei7 -march=x86-64 -g -Og
REM COMMAND_LINE
REM seed -835370119 1220073760 1217148502 -567231733 1400552700 -1019357902 -1094637434 -657368058 -1968353311 1190380876 -1575709788 -1730264704
REM
REM S 3|1.8|5|6|7|30:31:32(qc=5)
REM O 2|1.5|12|13|15|20:21(qc=5)
REM Li 1|1.3|8|9|10|10U:20(qc=5)
REM Fe 3|2.2|2.0|1.0|8|9|10|40:41:32(qc=5)
REM F 2|1.6|10|12|13|20:21(qc=5)
REM 
CELL 1.54180    6.73727    6.73727    6.09648   64.26567   64.26567  106.85962
LATT -1
SFAC Li O  F  S  Fe 
Li     1 -0.5000000000000  0.0000000000000 -0.5000000000000 1.0  -0.00
Li     1 -0.0000000000000  0.5000000000000 -0.5000000000000 1.0  -0.00
O      2 -0.0945090000000  0.1127460000000 -0.1937020000000 1.0  -0.02
O      2 -0.6057060000000  0.1874770000000  0.2158800000000 1.0  -0.04
O      2 -0.1127460000000  0.0945090000000  0.1937020000000 1.0  -0.02
O      2 -0.1874770000000  0.6057060000000 -0.2158800000000 1.0  -0.04
O      2  0.0945090000000 -0.1127460000000  0.1937020000000 1.0  -0.02
O      2  0.6057060000000 -0.1874770000000 -0.2158800000000 1.0  -0.04
O      2  0.1127460000000 -0.0945090000000 -0.1937020000000 1.0  -0.02
O      2  0.1874770000000 -0.6057060000000  0.2158800000000 1.0  -0.04
F      3 -0.6660810000000 -0.3339190000000  0.5000000000000 1.0   0.10
F      3  0.6660810000000  0.3339190000000  0.5000000000000 1.0   0.10
S      4  0.5000000000000  0.5000000000000 -0.0000000000000 1.0  -0.09
S      4 -0.0000000000000  0.0000000000000 -0.0000000000000 1.0  -0.07
Fe     5 -0.0000000000000  0.0000000000000  0.5000000000000 1.0   1.10
Fe     5  0.5000000000000  0.5000000000000  0.5000000000000 1.0   3.03
END
