TITL 2LiFeSO4F-200804-041137-a61b95 0.0199 247.989237 -7.56547505E+003 8.00000 8.09534 16 (P21) n - 1
REM
REM Run started: Tue, 04 Aug 2020 06:24:22 +0100 in /lustre/scratch/uccabz1/launch_tmp/launcher_2020-08-04-03-11-36-067183
REM CASTEP 20.1 from code version af48c487+ pr-geom-scf-spinfix Tue Jun 2 15:39:59 2020 +0100
REM Functional Perdew Burke Ernzerhof Relativity Koelling-Harmon Dispersion off
REM Cut-off 340.0000 eV Grid scale 1.7500 Gmax 16.5316 1/A FBSC none
REM MP grid 3 2 3 Offset 0.000 0.000 0.000 No. kpts 6 Spacing 0.07
REM Total runtime: 8057.2 s
REM Overall efficiency: 85.9167 %
REM
REM 2LiFeSO4F.cell (6abdf011d38848201efe8211ff585b1c)
REM
REM compiler GCC version 4.9.2
REM options -cpp -iprefix /lustre/shared/ucl/apps/gcc/4.9.2/bin/../lib/gcc/x86_64-unknown-linux-gnu/4.9.2/ -mtune=corei7 -march=x86-64 -g -Og
REM COMMAND_LINE
REM seed -1879567356 1186709258 -178882777 -285304812 -12419854 1833390710 -752334733 -1622283868 -2111755079 1011022081 -403764566 -1827837964
REM
REM S 3|1.8|5|6|7|30:31:32(qc=5)
REM O 2|1.5|12|13|15|20:21(qc=5)
REM Li 1|1.3|8|9|10|10U:20(qc=5)
REM Fe 3|2.2|2.0|1.0|8|9|10|40:41:32(qc=5)
REM F 2|1.6|10|12|13|20:21(qc=5)
REM 
CELL 1.54180    6.07239    7.74082    5.68321  111.82714   90.00000   90.00000
LATT -1
SFAC Li O  F  S  Fe 
Li     1  0.3755300000000  0.3902710000000 -0.4174390000000 1.0  -0.01
Li     1 -0.1244700000000 -0.3902710000000  0.4174390000000 1.0  -0.01
O      2 -0.1608780000000  0.1324740000000  0.4345490000000 1.0   0.05
O      2 -0.0720730000000  0.2347850000000  0.0844370000000 1.0   0.05
O      2  0.2257820000000  0.1310310000000  0.2998150000000 1.0   0.06
O      2  0.0481780000000  0.4272970000000  0.5124550000000 1.0   0.01
O      2  0.3391220000000 -0.1324740000000 -0.4345490000000 1.0   0.05
O      2  0.4279270000000 -0.2347850000000 -0.0844370000000 1.0   0.05
O      2  0.7257820000000 -0.1310310000000 -0.2998150000000 1.0   0.06
O      2  0.5481780000000 -0.4272970000000 -0.5124550000000 1.0   0.01
F      3  0.0072040000000 -0.3212870000000  0.1835200000000 1.0   0.12
F      3  0.5072040000000  0.3212870000000 -0.1835200000000 1.0   0.12
S      4  0.0043980000000  0.2321390000000  0.3332030000000 1.0   0.02
S      4  0.5043980000000 -0.2321390000000 -0.3332030000000 1.0   0.02
Fe     5 -0.2713760000000  0.1457070000000 -0.2190600000000 1.0   3.69
Fe     5  0.2286240000000 -0.1457070000000  0.2190600000000 1.0   3.69
END
