TITL 2LiFeSO4F-200819-001858-cdc467 0.0008 199.778839 -7.56630398E+003 8.00000 8.11797 16 (Cc) n - 1
REM
REM Run started: Wed, 19 Aug 2020 02:03:11 +0100 in /lustre/scratch/uccabz1/launch_tmp/launcher_2020-08-18-23-18-56-504727
REM CASTEP 20.1 from code version af48c487+ pr-geom-scf-spinfix Tue Jun 2 15:39:59 2020 +0100
REM Functional Perdew Burke Ernzerhof Relativity Koelling-Harmon Dispersion off
REM Cut-off 340.0000 eV Grid scale 1.7500 Gmax 16.5316 1/A FBSC none
REM MP grid 4 3 3 Offset 0.000 0.000 0.000 No. kpts 12 Spacing 0.07
REM Total runtime: 6325.56 s
REM Overall efficiency: 69.125 %
REM
REM 2LiFeSO4F.cell (6abdf011d38848201efe8211ff585b1c)
REM
REM compiler GCC version 4.9.2
REM options -cpp -iprefix /lustre/shared/ucl/apps/gcc/4.9.2/bin/../lib/gcc/x86_64-unknown-linux-gnu/4.9.2/ -mtune=corei7 -march=x86-64 -g -Og
REM COMMAND_LINE
REM seed -156720686 -36632035 -1522663030 -1810346047 404676373 -1808214944 1394623051 546949573 1294453371 1476491430 168792032 -1567427943
REM
REM S 3|1.8|5|6|7|30:31:32(qc=5)
REM O 2|1.5|12|13|15|20:21(qc=5)
REM Li 1|1.3|8|9|10|10U:20(qc=5)
REM Fe 3|2.2|2.0|1.0|8|9|10|40:41:32(qc=5)
REM F 2|1.6|10|12|13|20:21(qc=5)
REM 
CELL 1.54180    5.07767    6.79463    6.79463  108.30849  104.95528  104.95528
LATT -1
SFAC Li O  F  S  Fe 
Li     1 -0.3746860000000  0.0595060000000 -0.1329320000000 1.0  -0.02
Li     1  0.1253140000000 -0.1329320000000  0.0595060000000 1.0  -0.02
O      2  0.4618180000000  0.1070350000000  0.2924310000000 1.0   0.01
O      2  0.9085910000000  0.4162290000000  0.5685270000000 1.0   0.08
O      2  0.7814270000000  0.0534560000000  0.6019870000000 1.0   0.04
O      2  0.5000730000000  0.2808990000000  0.6857250000000 1.0   0.05
O      2  0.9618180000000  0.2924310000000  0.1070350000000 1.0   0.01
O      2  1.4085910000000  0.5685270000000  0.4162290000000 1.0   0.08
O      2  1.2814270000000  0.6019870000000  0.0534560000000 1.0   0.04
O      2  1.0000730000000  0.6857250000000  0.2808990000000 1.0   0.05
F      3 -0.2712030000000 -0.2053730000000 -0.1311820000000 1.0   0.08
F      3  0.2287970000000 -0.1311820000000 -0.2053730000000 1.0   0.08
S      4  0.6554090000000  0.2078450000000  0.5282880000000 1.0   0.02
S      4  1.1554090000000  0.5282880000000  0.2078450000000 1.0   0.02
Fe     5 -0.6535440000000 -0.4605890000000 -0.2577610000000 1.0   3.74
Fe     5 -1.1535440000000 -0.2577610000000 -0.4605890000000 1.0   3.74
END
