TITL 2LiFeSO4F-200804-014754-450fd8 -0.0726 268.501063 -7.56510086E+003 8.00000 8.22616 16 (P-1) n - 1
REM
REM Run started: Tue, 04 Aug 2020 10:42:03 +0100 in /lustre/scratch/uccabz1/launch_tmp/launcher_2020-08-04-00-47-47-374113
REM CASTEP 20.1 from code version af48c487+ pr-geom-scf-spinfix Tue Jun 2 15:39:59 2020 +0100
REM Functional Perdew Burke Ernzerhof Relativity Koelling-Harmon Dispersion off
REM Cut-off 340.0000 eV Grid scale 1.7500 Gmax 16.5316 1/A FBSC none
REM MP grid 4 4 2 Offset 0.000 0.000 0.000 No. kpts 16 Spacing 0.07
REM Total runtime: 34795.2 s
REM Overall efficiency: 97.25 %
REM
REM 2LiFeSO4F.cell (6abdf011d38848201efe8211ff585b1c)
REM
REM compiler GCC version 4.9.2
REM options -cpp -iprefix /lustre/shared/ucl/apps/gcc/4.9.2/bin/../lib/gcc/x86_64-unknown-linux-gnu/4.9.2/ -mtune=corei7 -march=x86-64 -g -Og
REM COMMAND_LINE
REM seed -833602382 901191923 1027535871 399876255 1925420769 -1147592100 -461278819 -1454942703 -19251104 582947267 1202588993 1713350439
REM
REM S 3|1.8|5|6|7|30:31:32(qc=5)
REM O 2|1.5|12|13|15|20:21(qc=5)
REM Li 1|1.3|8|9|10|10U:20(qc=5)
REM Fe 3|2.2|2.0|1.0|8|9|10|40:41:32(qc=5)
REM F 2|1.6|10|12|13|20:21(qc=5)
REM 
CELL 1.54180    5.39027    5.94067   12.92903   59.28506   64.04653   49.89478
LATT -1
SFAC Li O  F  S  Fe 
Li     1  0.0444440000000 -0.1080140000000 -0.0902070000000 1.0  -0.01
Li     1 -0.0444440000000  0.1080140000000  0.0902070000000 1.0  -0.01
O      2  0.5357380000000  0.2013510000000  0.2016380000000 1.0   0.08
O      2 -0.0185150000000  0.4088020000000  0.2992530000000 1.0   0.09
O      2  0.1631640000000  0.2150070000000  0.1305690000000 1.0   0.01
O      2  0.1078540000000  0.7009900000000  0.0820680000000 1.0   0.01
O      2 -0.5357380000000 -0.2013510000000 -0.2016380000000 1.0   0.08
O      2  0.0185150000000 -0.4088020000000 -0.2992530000000 1.0   0.09
O      2 -0.1631640000000 -0.2150070000000 -0.1305690000000 1.0   0.01
O      2 -0.1078540000000 -0.7009900000000 -0.0820680000000 1.0   0.01
F      3 -0.2046360000000 -0.1279010000000  0.4441910000000 1.0   0.15
F      3  0.2046360000000  0.1279010000000 -0.4441910000000 1.0   0.15
S      4  0.1871900000000  0.3862570000000  0.1733320000000 1.0   0.00
S      4 -0.1871900000000 -0.3862570000000 -0.1733320000000 1.0   0.00
Fe     5  0.3690620000000  0.1580430000000  0.3838370000000 1.0   3.67
Fe     5 -0.3690620000000 -0.1580430000000 -0.3838370000000 1.0   3.67
END
