TITL 2LiFeSO4F-200818-212649-e2867b 0.0586 207.220169 -7.55957830E+003 8.00000 8.12120 16 (Pnc2) n - 1
REM
REM Run started: Tue, 18 Aug 2020 21:40:11 +0100 in /lustre/scratch/uccabz1/launch_tmp/launcher_2020-08-18-20-26-46-853297
REM CASTEP 20.1 from code version af48c487+ pr-geom-scf-spinfix Tue Jun 2 15:39:59 2020 +0100
REM Functional Perdew Burke Ernzerhof Relativity Koelling-Harmon Dispersion off
REM Cut-off 340.0000 eV Grid scale 1.7500 Gmax 16.5316 1/A FBSC none
REM MP grid 4 4 2 Offset 0.000 0.000 0.000 No. kpts 4 Spacing 0.07
REM Total runtime: 1196.46 s
REM Overall efficiency: 73.2 %
REM
REM 2LiFeSO4F.cell (6abdf011d38848201efe8211ff585b1c)
REM
REM compiler GCC version 4.9.2
REM options -cpp -iprefix /lustre/shared/ucl/apps/gcc/4.9.2/bin/../lib/gcc/x86_64-unknown-linux-gnu/4.9.2/ -mtune=corei7 -march=x86-64 -g -Og
REM COMMAND_LINE
REM seed 1058665722 1249204736 -1493593242 -367540913 -1583309850 -1846542498 1587079530 -1971256549 -715343218 1708890736 -1410517572 543748008
REM
REM S 3|1.8|5|6|7|30:31:32(qc=5)
REM O 2|1.5|12|13|15|20:21(qc=5)
REM Li 1|1.3|8|9|10|10U:20(qc=5)
REM Fe 3|2.2|2.0|1.0|8|9|10|40:41:32(qc=5)
REM F 2|1.6|10|12|13|20:21(qc=5)
REM 
CELL 1.54180    3.60185    4.18040   13.76224   90.00000   90.00000   90.00000
LATT -1
SFAC Li O  F  S  Fe 
Li     1  0.5000000000000 -0.5000000000000  0.1680910000000 1.0  -0.02
Li     1 -0.5000000000000 -0.0000000000000 -0.3319090000000 1.0  -0.02
O      2  0.2080290000000  0.2868210000000 -0.5562360000000 1.0   0.14
O      2 -0.2328600000000  0.2912520000000 -0.4235320000000 1.0   0.02
O      2 -0.2080290000000 -0.2868210000000 -0.5562360000000 1.0   0.14
O      2  0.2328600000000 -0.2912520000000 -0.4235320000000 1.0   0.02
O      2  0.2080290000000  0.2131790000000 -0.0562360000000 1.0   0.14
O      2 -0.2328600000000  0.2087480000000  0.0764680000000 1.0   0.02
O      2 -0.2080290000000 -0.2131790000000 -0.0562360000000 1.0   0.14
O      2  0.2328600000000 -0.2087480000000  0.0764680000000 1.0   0.02
F      3  0.0000000000000 -0.0000000000000 -0.2458360000000 1.0   0.02
F      3  0.0000000000000  0.5000000000000  0.2541640000000 1.0   0.02
S      4  0.0000000000000 -0.0000000000000  0.0166570000000 1.0   0.01
S      4  0.0000000000000  0.5000000000000 -0.4833430000000 1.0   0.01
Fe     5  0.5000000000000 -0.5000000000000 -0.1270670000000 1.0   3.67
Fe     5 -0.5000000000000 -0.0000000000000  0.3729330000000 1.0   3.67
END
