TITL 2LiFeSO4F-200819-013748-9b4cd9 -0.0857 230.534832 -7.56573560E+003 8.00000 8.08616 16 (P-1) n - 1
REM
REM Run started: Wed, 19 Aug 2020 06:09:15 +0100 in /lustre/scratch/uccabz1/launch_tmp/launcher_2020-08-19-00-37-46-253576
REM CASTEP 20.1 from code version af48c487+ pr-geom-scf-spinfix Tue Jun 2 15:39:59 2020 +0100
REM Functional Perdew Burke Ernzerhof Relativity Koelling-Harmon Dispersion off
REM Cut-off 340.0000 eV Grid scale 1.7500 Gmax 16.5316 1/A FBSC none
REM MP grid 3 3 3 Offset 0.000 0.000 0.000 No. kpts 14 Spacing 0.07
REM Total runtime: 18223.2 s
REM Overall efficiency: 96.0833 %
REM
REM 2LiFeSO4F.cell (6abdf011d38848201efe8211ff585b1c)
REM
REM compiler GCC version 4.9.2
REM options -cpp -iprefix /lustre/shared/ucl/apps/gcc/4.9.2/bin/../lib/gcc/x86_64-unknown-linux-gnu/4.9.2/ -mtune=corei7 -march=x86-64 -g -Og
REM COMMAND_LINE
REM seed 1728787444 -1218974682 -2140830331 -40216872 -2124766152 -14543134 -1669925365 1981111055 1168865837 -459201479 -962064184 1875572342
REM
REM S 3|1.8|5|6|7|30:31:32(qc=5)
REM O 2|1.5|12|13|15|20:21(qc=5)
REM Li 1|1.3|8|9|10|10U:20(qc=5)
REM Fe 3|2.2|2.0|1.0|8|9|10|40:41:32(qc=5)
REM F 2|1.6|10|12|13|20:21(qc=5)
REM 
CELL 1.54180    7.02100    7.02971    5.89619   99.42808   90.29556  125.94541
LATT -1
SFAC Li O  F  S  Fe 
Li     1 -0.1712790000000 -0.2183120000000  0.0798830000000 1.0  -0.01
Li     1  0.1712790000000  0.2183120000000 -0.0798830000000 1.0  -0.01
O      2 -0.5599590000000  0.3167250000000 -0.2656180000000 1.0   0.01
O      2 -0.4758920000000  0.0217870000000 -0.2394300000000 1.0   0.04
O      2 -0.2517740000000  0.4187080000000  0.0324470000000 1.0   0.06
O      2 -0.1846050000000  0.3894030000000 -0.3743580000000 1.0   0.09
O      2  0.5599590000000 -0.3167250000000  0.2656180000000 1.0   0.01
O      2  0.4758920000000 -0.0217870000000  0.2394300000000 1.0   0.04
O      2  0.2517740000000 -0.4187080000000 -0.0324470000000 1.0   0.06
O      2  0.1846050000000 -0.3894030000000  0.3743580000000 1.0   0.09
F      3  0.0429530000000 -0.1187760000000 -0.1489360000000 1.0   0.10
F      3 -0.0429530000000  0.1187760000000  0.1489360000000 1.0   0.10
S      4 -0.3799390000000  0.2788070000000 -0.2122210000000 1.0   0.01
S      4  0.3799390000000 -0.2788070000000  0.2122210000000 1.0   0.01
Fe     5  0.1701350000000 -0.2878200000000 -0.2789680000000 1.0   3.71
Fe     5 -0.1701350000000  0.2878200000000  0.2789680000000 1.0   3.71
END
