TITL 2LiFeSO4F-200818-191819-ebceae -0.0076 229.938866 -7.56442822E+003 7.99989 8.14480 16 (Cm) n - 1
REM
REM Run started: Tue, 18 Aug 2020 21:02:24 +0100 in /lustre/scratch/uccabz1/launch_tmp/launcher_2020-08-18-18-18-17-774843
REM CASTEP 20.1 from code version af48c487+ pr-geom-scf-spinfix Tue Jun 2 15:39:59 2020 +0100
REM Functional Perdew Burke Ernzerhof Relativity Koelling-Harmon Dispersion off
REM Cut-off 340.0000 eV Grid scale 1.7500 Gmax 16.5316 1/A FBSC none
REM MP grid 4 2 2 Offset 0.000 0.000 0.000 No. kpts 6 Spacing 0.07
REM Total runtime: 6283.64 s
REM Overall efficiency: 71 %
REM
REM 2LiFeSO4F.cell (6abdf011d38848201efe8211ff585b1c)
REM
REM compiler GCC version 4.9.2
REM options -cpp -iprefix /lustre/shared/ucl/apps/gcc/4.9.2/bin/../lib/gcc/x86_64-unknown-linux-gnu/4.9.2/ -mtune=corei7 -march=x86-64 -g -Og
REM COMMAND_LINE
REM seed -902799419 -1728992612 822446867 2106191686 1094925492 -2057670077 1168951847 1303090976 -2124365383 575379743 183400936 -588294525
REM
REM S 3|1.8|5|6|7|30:31:32(qc=5)
REM O 2|1.5|12|13|15|20:21(qc=5)
REM Li 1|1.3|8|9|10|10U:20(qc=5)
REM Fe 3|2.2|2.0|1.0|8|9|10|40:41:32(qc=5)
REM F 2|1.6|10|12|13|20:21(qc=5)
REM 
CELL 1.54180    4.09661    7.78254    7.78254   95.90944  104.08276  104.08276
LATT -1
SFAC Li O  F  S  Fe 
Li     1  0.3407810000000 -0.2815480000000  0.3994910000000 1.0  -0.01
Li     1  0.3407810000000  0.3994910000000 -0.2815480000000 1.0  -0.01
O      2 -0.0291700000000  0.0302130000000 -0.2538810000000 1.0   0.12
O      2 -0.5725550000000 -0.0277890000000 -0.4972680000000 1.0   0.01
O      2 -0.0450060000000  0.2186670000000 -0.4874000000000 1.0   0.07
O      2 -0.3503650000000  0.2537400000000 -0.2637840000000 1.0   0.02
O      2 -0.0291700000000 -0.2538810000000  0.0302130000000 1.0   0.12
O      2 -0.5725550000000 -0.4972680000000 -0.0277890000000 1.0   0.01
O      2 -0.0450060000000 -0.4874000000000  0.2186670000000 1.0   0.07
O      2 -0.3503650000000 -0.2637840000000  0.2537400000000 1.0   0.02
F      3  0.3296260000000  0.2247020000000  0.2247020000000 1.0   0.11
F      3  0.4774460000000 -0.3834600000000 -0.3834600000000 1.0   0.10
S      4 -0.2720070000000  0.1161560000000 -0.3801290000000 1.0   0.01
S      4 -0.2720070000000 -0.3801290000000  0.1161560000000 1.0   0.01
Fe     5 -0.1250390000000  0.2570290000000  0.2570290000000 1.0   3.75
Fe     5 -0.1850980000000 -0.2007930000000 -0.2007930000000 1.0   3.63
END
