TITL 2LiFeSO4F-200819-015223-881c68 0.0135 259.519967 -7.56595643E+003 8.00000 8.18771 16 (Pc) n - 1
REM
REM Run started: Wed, 19 Aug 2020 03:00:41 +0100 in /scratch/scratch/uccabz1/launch_tmp/launcher_2020-08-19-00-52-20-468024
REM CASTEP 19.11| from code version Version unavailable
REM Functional Perdew Burke Ernzerhof Relativity Koelling-Harmon Dispersion off
REM Cut-off 340.0000 eV Grid scale 1.7500 Gmax 16.5316 1/A FBSC none
REM MP grid 3 3 2 Offset 0.000 0.000 0.000 No. kpts 5 Spacing 0.07
REM Total runtime: 4132.02 s
REM Overall efficiency: 73.9 %
REM
REM 2LiFeSO4F.cell (6abdf011d38848201efe8211ff585b1c)
REM
REM compiler GCC version 4.9.2
REM options -cpp -iprefix /scratch/UCL/applications/gcc/4.9.2/bin/../lib/gcc/x86_64-unknown-linux-gnu/4.9.2/ -mtune=corei7 -march=x86-64 -g -O2
REM COMMAND_LINE
REM seed 1817537373 559565728 -1355337901 -1008840249 -2066018546 -1229252030 923562776 -740789932 1648285526 -1447055463 -298724472 -217514937
REM
REM S 3|1.8|5|6|7|30:31:32(qc=5)
REM O 2|1.5|12|13|15|20:21(qc=5)
REM Li 1|1.3|8|9|10|10U:20(qc=5)
REM Fe 3|2.2|2.0|1.0|8|9|10|40:41:32(qc=5)
REM F 2|1.6|10|12|13|20:21(qc=5)
REM 
CELL 1.54180    5.52671    6.25175    7.52404   90.00000   90.00000   86.63644
LATT -1
SFAC Li O  F  S  Fe 
Li     1  0.4158090000000  0.2615690000000  0.0848980000000 1.0  -0.02
Li     1  0.4158090000000 -0.2384310000000 -0.0848980000000 1.0  -0.02
O      2 -0.0674350000000 -0.4012560000000 -0.4969240000000 1.0   0.07
O      2 -0.3260670000000 -0.3426340000000 -0.2369690000000 1.0   0.02
O      2  0.0903850000000 -0.2158290000000 -0.2352120000000 1.0   0.07
O      2  0.0336430000000 -0.5931010000000 -0.2168800000000 1.0   0.08
O      2 -0.0674350000000  0.0987440000000  0.4969240000000 1.0   0.07
O      2 -0.3260670000000  0.1573660000000  0.2369690000000 1.0   0.02
O      2  0.0903850000000  0.2841710000000  0.2352120000000 1.0   0.07
O      2  0.0336430000000 -0.0931010000000  0.2168800000000 1.0   0.08
F      3  0.3690070000000  0.0701480000000 -0.1008310000000 1.0   0.08
F      3  0.3690070000000 -0.4298520000000  0.1008310000000 1.0   0.08
S      4 -0.0754770000000 -0.3877330000000 -0.2974320000000 1.0   0.02
S      4 -0.0754770000000  0.1122670000000  0.2974320000000 1.0   0.02
Fe     5  0.0977500000000  0.1027810000000 -0.2705340000000 1.0   3.68
Fe     5  0.0977500000000 -0.3972190000000  0.2705340000000 1.0   3.68
END
