TITL 2LiFeSO4F-200804-053948-5e6e85 0.0238 209.003062 -7.56535733E+003 7.99994 8.17443 16 (P-1) n - 1
REM
REM Run started: Tue, 04 Aug 2020 07:17:23 +0100 in /lustre/scratch/uccabz1/launch_tmp/launcher_2020-08-04-04-39-43-253496
REM CASTEP 20.1 from code version af48c487+ pr-geom-scf-spinfix Tue Jun 2 15:39:59 2020 +0100
REM Functional Perdew Burke Ernzerhof Relativity Koelling-Harmon Dispersion off
REM Cut-off 340.0000 eV Grid scale 1.7500 Gmax 16.5316 1/A FBSC none
REM MP grid 4 3 3 Offset 0.000 0.000 0.000 No. kpts 18 Spacing 0.07
REM Total runtime: 5921.19 s
REM Overall efficiency: 92.75 %
REM
REM 2LiFeSO4F.cell (6abdf011d38848201efe8211ff585b1c)
REM
REM compiler GCC version 4.9.2
REM options -cpp -iprefix /lustre/shared/ucl/apps/gcc/4.9.2/bin/../lib/gcc/x86_64-unknown-linux-gnu/4.9.2/ -mtune=corei7 -march=x86-64 -g -Og
REM COMMAND_LINE
REM seed -946416988 -1699877767 -620244642 -1274888292 686561585 391228764 1876093468 -348067975 -214181187 -377507144 -2070301294 98907998
REM
REM S 3|1.8|5|6|7|30:31:32(qc=5)
REM O 2|1.5|12|13|15|20:21(qc=5)
REM Li 1|1.3|8|9|10|10U:20(qc=5)
REM Fe 3|2.2|2.0|1.0|8|9|10|40:41:32(qc=5)
REM F 2|1.6|10|12|13|20:21(qc=5)
REM 
CELL 1.54180    5.18478    7.36683    6.04386   80.40879  101.20689  111.88217
LATT -1
SFAC Li O  F  S  Fe 
Li     1 -0.6729170000000 -0.3743650000000 -0.0776410000000 1.0  -0.00
Li     1  0.6729170000000  0.3743650000000  0.0776410000000 1.0  -0.00
O      2 -0.4722110000000 -0.3101230000000 -0.4063420000000 1.0   0.06
O      2 -0.2194390000000 -0.3458040000000 -0.0322720000000 1.0   0.02
O      2 -0.0843390000000 -0.0211830000000 -0.2662380000000 1.0   0.06
O      2  0.0277070000000 -0.2947780000000 -0.3556620000000 1.0   0.06
O      2  0.4722110000000  0.3101230000000  0.4063420000000 1.0   0.06
O      2  0.2194390000000  0.3458040000000  0.0322720000000 1.0   0.02
O      2  0.0843390000000  0.0211830000000  0.2662380000000 1.0   0.06
O      2 -0.0277070000000  0.2947780000000  0.3556620000000 1.0   0.06
F      3  0.6242570000000  0.2083170000000 -0.1328960000000 1.0   0.16
F      3 -0.6242570000000 -0.2083170000000  0.1328960000000 1.0   0.16
S      4 -0.1845620000000 -0.2414620000000 -0.2636160000000 1.0   0.01
S      4  0.1845620000000  0.2414620000000  0.2636160000000 1.0   0.01
Fe     5 -0.2969190000000  0.1570640000000 -0.4003870000000 1.0   3.64
Fe     5  0.2969190000000 -0.1570640000000  0.4003870000000 1.0   3.64
END
