TITL 2LiFeSO4F-200804-025605-30a143 -0.0043 215.423335 -7.56561107E+003 8.00000 8.07699 16 (P21) n - 1
REM
REM Run started: Tue, 04 Aug 2020 03:58:33 +0100 in /lustre/scratch/uccabz1/launch_tmp/launcher_2020-08-04-01-56-03-457381
REM CASTEP 20.1 from code version af48c487+ pr-geom-scf-spinfix Tue Jun 2 15:39:59 2020 +0100
REM Functional Perdew Burke Ernzerhof Relativity Koelling-Harmon Dispersion off
REM Cut-off 340.0000 eV Grid scale 1.7500 Gmax 16.5316 1/A FBSC none
REM MP grid 3 3 3 Offset 0.000 0.000 0.000 No. kpts 10 Spacing 0.07
REM Total runtime: 3905.82 s
REM Overall efficiency: 78 %
REM
REM 2LiFeSO4F.cell (6abdf011d38848201efe8211ff585b1c)
REM
REM compiler GCC version 4.9.2
REM options -cpp -iprefix /lustre/shared/ucl/apps/gcc/4.9.2/bin/../lib/gcc/x86_64-unknown-linux-gnu/4.9.2/ -mtune=corei7 -march=x86-64 -g -Og
REM COMMAND_LINE
REM seed -450049915 1290122686 2104139127 1997532213 42692327 812505279 1144002108 -1789693158 -59680627 -1368481542 1932595471 -224120302
REM
REM S 3|1.8|5|6|7|30:31:32(qc=5)
REM O 2|1.5|12|13|15|20:21(qc=5)
REM Li 1|1.3|8|9|10|10U:20(qc=5)
REM Fe 3|2.2|2.0|1.0|8|9|10|40:41:32(qc=5)
REM F 2|1.6|10|12|13|20:21(qc=5)
REM 
CELL 1.54180    5.14678    6.01744    7.84023  117.47781   90.00000   90.00000
LATT -1
SFAC Li O  F  S  Fe 
Li     1  0.1706420000000 -0.1217100000000  0.2649400000000 1.0  -0.03
Li     1 -0.3293580000000  0.1217100000000 -0.2649400000000 1.0  -0.03
O      2 -0.0582150000000  0.1581770000000  0.3647870000000 1.0   0.01
O      2 -0.4431140000000  0.3249440000000  0.2757270000000 1.0   0.07
O      2 -0.4484920000000  0.2781060000000  0.5713310000000 1.0   0.03
O      2 -0.4593970000000 -0.0936520000000  0.2544520000000 1.0   0.04
O      2  0.4417850000000 -0.1581770000000 -0.3647870000000 1.0   0.01
O      2  0.0568860000000 -0.3249440000000 -0.2757270000000 1.0   0.07
O      2  0.0515080000000 -0.2781060000000 -0.5713310000000 1.0   0.03
O      2  0.0406030000000  0.0936520000000 -0.2544520000000 1.0   0.04
F      3  0.0149140000000 -0.3954260000000  0.0590270000000 1.0   0.11
F      3 -0.4850860000000  0.3954260000000 -0.0590270000000 1.0   0.11
S      4 -0.3453740000000  0.1709700000000  0.3697840000000 1.0   0.01
S      4  0.1546260000000 -0.1709700000000 -0.3697840000000 1.0   0.01
Fe     5 -0.2790490000000 -0.4356890000000  0.2029500000000 1.0   3.76
Fe     5  0.2209510000000  0.4356890000000 -0.2029500000000 1.0   3.76
END
