TITL 2LiFeSO4F-200804-035949-3e5180 -0.0364 223.835355 -7.56519430E+003 8.00000 8.10287 16 (Pc) n - 1
REM
REM Run started: Tue, 04 Aug 2020 04:34:13 +0100 in /lustre/scratch/uccabz1/launch_tmp/launcher_2020-08-04-02-59-45-267619
REM CASTEP 20.1 from code version af48c487+ pr-geom-scf-spinfix Tue Jun 2 15:39:59 2020 +0100
REM Functional Perdew Burke Ernzerhof Relativity Koelling-Harmon Dispersion off
REM Cut-off 340.0000 eV Grid scale 1.7500 Gmax 16.5316 1/A FBSC none
REM MP grid 3 3 2 Offset 0.000 0.000 0.000 No. kpts 5 Spacing 0.07
REM Total runtime: 2357.49 s
REM Overall efficiency: 72.2857 %
REM
REM 2LiFeSO4F.cell (6abdf011d38848201efe8211ff585b1c)
REM
REM compiler GCC version 4.9.2
REM options -cpp -iprefix /lustre/shared/ucl/apps/gcc/4.9.2/bin/../lib/gcc/x86_64-unknown-linux-gnu/4.9.2/ -mtune=corei7 -march=x86-64 -g -Og
REM COMMAND_LINE
REM seed -637165912 -869173374 -1304268451 -1045328052 -282435762 106329323 -1130868931 -1868479804 1444390507 -1597254804 875983714 -1683016566
REM
REM S 3|1.8|5|6|7|30:31:32(qc=5)
REM O 2|1.5|12|13|15|20:21(qc=5)
REM Li 1|1.3|8|9|10|10U:20(qc=5)
REM Fe 3|2.2|2.0|1.0|8|9|10|40:41:32(qc=5)
REM F 2|1.6|10|12|13|20:21(qc=5)
REM 
CELL 1.54180    4.92424    6.18153    7.44138   90.00000   90.00000   98.81495
LATT -1
SFAC Li O  F  S  Fe 
Li     1  0.0334470000000 -0.0797010000000  0.1679900000000 1.0  -0.02
Li     1  0.0334470000000  0.4202990000000 -0.1679900000000 1.0  -0.02
O      2 -0.0332310000000 -0.3080080000000 -0.2787930000000 1.0   0.01
O      2 -0.4010240000000 -0.0967420000000 -0.3382420000000 1.0   0.08
O      2  0.0528340000000  0.0918830000000 -0.2382120000000 1.0   0.06
O      2 -0.2439510000000 -0.1320230000000 -0.0245820000000 1.0   0.01
O      2 -0.0332310000000  0.1919920000000  0.2787930000000 1.0   0.01
O      2 -0.4010240000000  0.4032580000000  0.3382420000000 1.0   0.08
O      2  0.0528340000000  0.5918830000000  0.2382120000000 1.0   0.06
O      2 -0.2439510000000  0.3679770000000  0.0245820000000 1.0   0.01
F      3  0.3424880000000  0.4386520000000 -0.3628680000000 1.0   0.11
F      3  0.3424880000000 -0.0613480000000  0.3628680000000 1.0   0.11
S      4 -0.1561270000000 -0.1174040000000 -0.2148790000000 1.0   0.01
S      4 -0.1561270000000  0.3825960000000  0.2148790000000 1.0   0.01
Fe     5  0.3878490000000  0.1355890000000 -0.4107160000000 1.0   3.74
Fe     5  0.3878490000000 -0.3644110000000  0.4107160000000 1.0   3.74
END
