TITL 2LiFeSO4F-200804-043652-d14569 -0.0029 189.819787 -7.56623198E+003 7.99999 8.07799 16 (P-1) n - 1
REM
REM Run started: Tue, 04 Aug 2020 07:39:10 +0100 in /lustre/scratch/uccabz1/launch_tmp/launcher_2020-08-04-03-36-51-077507
REM CASTEP 20.1 from code version af48c487+ pr-geom-scf-spinfix Tue Jun 2 15:39:59 2020 +0100
REM Functional Perdew Burke Ernzerhof Relativity Koelling-Harmon Dispersion off
REM Cut-off 340.0000 eV Grid scale 1.7500 Gmax 16.5316 1/A FBSC none
REM MP grid 4 3 3 Offset 0.000 0.000 0.000 No. kpts 18 Spacing 0.07
REM Total runtime: 11007.1 s
REM Overall efficiency: 86.3636 %
REM
REM 2LiFeSO4F.cell (6abdf011d38848201efe8211ff585b1c)
REM
REM compiler GCC version 4.9.2
REM options -cpp -iprefix /lustre/shared/ucl/apps/gcc/4.9.2/bin/../lib/gcc/x86_64-unknown-linux-gnu/4.9.2/ -mtune=corei7 -march=x86-64 -g -Og
REM COMMAND_LINE
REM seed -1798497766 -232227162 1590119522 1327768771 -802077633 -1329153973 1639106272 -1333180728 1946373679 1444430399 -54090833 -856778770
REM
REM S 3|1.8|5|6|7|30:31:32(qc=5)
REM O 2|1.5|12|13|15|20:21(qc=5)
REM Li 1|1.3|8|9|10|10U:20(qc=5)
REM Fe 3|2.2|2.0|1.0|8|9|10|40:41:32(qc=5)
REM F 2|1.6|10|12|13|20:21(qc=5)
REM 
CELL 1.54180    5.20628    7.32857    6.32476  116.18678  100.89292  108.28891
LATT -1
SFAC Li O  F  S  Fe 
Li     1 -0.8928260000000 -0.2656470000000 -0.3536830000000 1.0  -0.02
Li     1  0.8928260000000  0.2656470000000  0.3536830000000 1.0  -0.02
O      2 -0.2413470000000  0.2272330000000 -0.3623530000000 1.0   0.05
O      2  0.2418670000000  0.3264960000000 -0.0793060000000 1.0   0.08
O      2 -0.1314790000000 -0.0741660000000 -0.3544210000000 1.0   0.03
O      2 -0.1998770000000  0.1958190000000  0.0107170000000 1.0   0.01
O      2  0.2413470000000 -0.2272330000000  0.3623530000000 1.0   0.05
O      2 -0.2418670000000 -0.3264960000000  0.0793060000000 1.0   0.08
O      2  0.1314790000000  0.0741660000000  0.3544210000000 1.0   0.03
O      2  0.1998770000000 -0.1958190000000 -0.0107170000000 1.0   0.01
F      3  0.7209840000000  0.4821680000000  0.4419800000000 1.0   0.09
F      3 -0.7209840000000 -0.4821680000000 -0.4419800000000 1.0   0.09
S      4 -0.0893480000000  0.1639400000000 -0.1940120000000 1.0   0.01
S      4  0.0893480000000 -0.1639400000000  0.1940120000000 1.0   0.01
Fe     5  0.5045510000000  0.6096700000000  0.3001580000000 1.0   3.75
Fe     5 -0.5045510000000 -0.6096700000000 -0.3001580000000 1.0   3.75
END
