TITL 2LiFeSO4F-200804-033023-b46c51 0.0014 199.826073 -7.56517284E+003 8.00000 8.15753 16 (Cc) n - 1
REM
REM Run started: Tue, 04 Aug 2020 05:14:42 +0100 in /lustre/scratch/uccabz1/launch_tmp/launcher_2020-08-04-02-30-21-211253
REM CASTEP 20.1 from code version af48c487+ pr-geom-scf-spinfix Tue Jun 2 15:39:59 2020 +0100
REM Functional Perdew Burke Ernzerhof Relativity Koelling-Harmon Dispersion off
REM Cut-off 340.0000 eV Grid scale 1.7500 Gmax 16.5316 1/A FBSC none
REM MP grid 4 4 2 Offset 0.000 0.000 0.000 No. kpts 16 Spacing 0.07
REM Total runtime: 7124.82 s
REM Overall efficiency: 92.4444 %
REM
REM 2LiFeSO4F.cell (6abdf011d38848201efe8211ff585b1c)
REM
REM compiler GCC version 4.9.2
REM options -cpp -iprefix /lustre/shared/ucl/apps/gcc/4.9.2/bin/../lib/gcc/x86_64-unknown-linux-gnu/4.9.2/ -mtune=corei7 -march=x86-64 -g -Og
REM COMMAND_LINE
REM seed 1440463331 1530822831 2018433897 -753201135 -1804987026 -1820822451 1043089116 44496823 -897373405 -515739240 -1835847729 808202858
REM
REM S 3|1.8|5|6|7|30:31:32(qc=5)
REM O 2|1.5|12|13|15|20:21(qc=5)
REM Li 1|1.3|8|9|10|10U:20(qc=5)
REM Fe 3|2.2|2.0|1.0|8|9|10|40:41:32(qc=5)
REM F 2|1.6|10|12|13|20:21(qc=5)
REM 
CELL 1.54180    4.80867    5.07508    9.30428   88.10658   90.00000  118.27814
LATT -1
SFAC Li O  F  S  Fe 
Li     1 -0.2425930000000  0.3672330000000 -0.0915130000000 1.0  -0.03
Li     1 -0.3901750000000  0.3672330000000  0.4084870000000 1.0  -0.03
O      2  0.0823330000000 -0.1813480000000  0.3345270000000 1.0   0.03
O      2 -0.3141040000000 -0.2690330000000  0.5177590000000 1.0   0.04
O      2 -0.1342010000000  0.1747190000000  0.3581760000000 1.0   0.04
O      2  0.2356830000000  0.1492850000000  0.5350410000000 1.0   0.03
O      2 -0.2636810000000 -0.1813480000000 -0.1654730000000 1.0   0.03
O      2  0.0450700000000 -0.2690330000000  0.0177590000000 1.0   0.04
O      2  0.3089200000000  0.1747190000000 -0.1418240000000 1.0   0.04
O      2 -0.0863980000000  0.1492850000000  0.0350410000000 1.0   0.03
F      3 -0.5171480000000  0.4616230000000  0.2255500000000 1.0   0.13
F      3 -0.0212290000000  0.4616230000000 -0.2744500000000 1.0   0.13
S      4 -0.0305310000000 -0.0291800000000  0.4358240000000 1.0   0.02
S      4  0.0013510000000 -0.0291800000000 -0.0641760000000 1.0   0.02
Fe     5  0.3870040000000 -0.4858570000000 -0.3118580000000 1.0   3.73
Fe     5  0.1271390000000 -0.4858570000000  0.1881420000000 1.0   3.73
END
