TITL 2LiFeSO4F-200804-053448-1b1030 -0.0178 220.304042 -7.56513485E+003 8.00000 8.15147 16 (P21) n - 1
REM
REM Run started: Tue, 04 Aug 2020 06:08:52 +0100 in /lustre/scratch/uccabz1/launch_tmp/launcher_2020-08-04-04-34-46-828817
REM CASTEP 20.1 from code version af48c487+ pr-geom-scf-spinfix Tue Jun 2 15:39:59 2020 +0100
REM Functional Perdew Burke Ernzerhof Relativity Koelling-Harmon Dispersion off
REM Cut-off 340.0000 eV Grid scale 1.7500 Gmax 16.5316 1/A FBSC none
REM MP grid 3 3 2 Offset 0.000 0.000 0.000 No. kpts 6 Spacing 0.07
REM Total runtime: 2079.53 s
REM Overall efficiency: 69.25 %
REM
REM 2LiFeSO4F.cell (6abdf011d38848201efe8211ff585b1c)
REM
REM compiler GCC version 4.9.2
REM options -cpp -iprefix /lustre/shared/ucl/apps/gcc/4.9.2/bin/../lib/gcc/x86_64-unknown-linux-gnu/4.9.2/ -mtune=corei7 -march=x86-64 -g -Og
REM COMMAND_LINE
REM seed 1527728093 -1447529070 -1803705338 1648696955 1896971026 -313983391 -1392119193 288866919 86187881 1843141300 -1253146851 720884810
REM
REM S 3|1.8|5|6|7|30:31:32(qc=5)
REM O 2|1.5|12|13|15|20:21(qc=5)
REM Li 1|1.3|8|9|10|10U:20(qc=5)
REM Fe 3|2.2|2.0|1.0|8|9|10|40:41:32(qc=5)
REM F 2|1.6|10|12|13|20:21(qc=5)
REM 
CELL 1.54180    4.97494    6.09917    7.40483  101.33294   90.00000   90.00000
LATT -1
SFAC Li O  F  S  Fe 
Li     1 -0.3322550000000  0.3485460000000 -0.5172240000000 1.0  -0.02
Li     1  0.1677450000000 -0.3485460000000  0.5172240000000 1.0  -0.02
O      2  0.2302040000000  0.3686520000000  0.0412400000000 1.0   0.08
O      2 -0.0568210000000  0.4301390000000  0.3058640000000 1.0   0.04
O      2  0.3762680000000  0.2371810000000  0.3231700000000 1.0   0.01
O      2  0.0038790000000  0.0444520000000  0.1331960000000 1.0   0.05
O      2 -0.2697960000000 -0.3686520000000 -0.0412400000000 1.0   0.08
O      2 -0.5568210000000 -0.4301390000000 -0.3058640000000 1.0   0.04
O      2 -0.1237320000000 -0.2371810000000 -0.3231700000000 1.0   0.01
O      2 -0.4961210000000 -0.0444520000000 -0.1331960000000 1.0   0.05
F      3 -0.2004670000000  0.2302880000000 -0.3303560000000 1.0   0.12
F      3 -0.7004670000000 -0.2302880000000  0.3303560000000 1.0   0.12
S      4  0.1452120000000  0.2598280000000  0.2050780000000 1.0   0.01
S      4 -0.3547880000000 -0.2598280000000 -0.2050780000000 1.0   0.01
Fe     5  0.0321240000000 -0.2896770000000  0.1448140000000 1.0   3.70
Fe     5 -0.4678760000000  0.2896770000000 -0.1448140000000 1.0   3.70
END
