TITL 2LiFeSO4F-200804-051257-5a2a23 -0.0447 261.737808 -7.56598329E+003 8.00000 8.10433 16 (P-1) n - 1
REM
REM Run started: Tue, 04 Aug 2020 10:26:54 +0100 in /lustre/scratch/uccabz1/launch_tmp/launcher_2020-08-04-04-12-54-289152
REM CASTEP 20.1 from code version af48c487+ pr-geom-scf-spinfix Tue Jun 2 15:39:59 2020 +0100
REM Functional Perdew Burke Ernzerhof Relativity Koelling-Harmon Dispersion off
REM Cut-off 340.0000 eV Grid scale 1.7500 Gmax 16.5316 1/A FBSC none
REM MP grid 4 3 2 Offset 0.000 0.000 0.000 No. kpts 12 Spacing 0.07
REM Total runtime: 21474.5 s
REM Overall efficiency: 72.6667 %
REM
REM 2LiFeSO4F.cell (6abdf011d38848201efe8211ff585b1c)
REM
REM compiler GCC version 4.9.2
REM options -cpp -iprefix /lustre/shared/ucl/apps/gcc/4.9.2/bin/../lib/gcc/x86_64-unknown-linux-gnu/4.9.2/ -mtune=corei7 -march=x86-64 -g -Og
REM COMMAND_LINE
REM seed 1162955073 -937066058 -1419126926 -694053931 919193165 850704834 -1173921122 212483604 -866960334 -1414958814 -691930353 -1394492385
REM
REM S 3|1.8|5|6|7|30:31:32(qc=5)
REM O 2|1.5|12|13|15|20:21(qc=5)
REM Li 1|1.3|8|9|10|10U:20(qc=5)
REM Fe 3|2.2|2.0|1.0|8|9|10|40:41:32(qc=5)
REM F 2|1.6|10|12|13|20:21(qc=5)
REM 
CELL 1.54180    5.08776    7.96857   11.53957  128.25793  134.56299   64.24673
LATT -1
SFAC Li O  F  S  Fe 
Li     1 -0.2129780000000  0.3479500000000  0.0178990000000 1.0  -0.01
Li     1  0.2129780000000 -0.3479500000000 -0.0178990000000 1.0  -0.01
O      2  0.1306300000000 -0.0342580000000 -0.3259030000000 1.0   0.06
O      2  0.2594720000000  0.3494040000000 -0.0869400000000 1.0   0.01
O      2 -0.2165510000000  0.1608970000000 -0.2015510000000 1.0   0.06
O      2 -0.3192180000000  0.2453850000000 -0.4029290000000 1.0   0.06
O      2 -0.1306300000000  0.0342580000000  0.3259030000000 1.0   0.06
O      2 -0.2594720000000 -0.3494040000000  0.0869400000000 1.0   0.01
O      2  0.2165510000000 -0.1608970000000  0.2015510000000 1.0   0.06
O      2  0.3192180000000 -0.2453850000000  0.4029290000000 1.0   0.06
F      3  0.9060090000000 -0.2492350000000 -0.1798080000000 1.0   0.12
F      3 -0.9060090000000  0.2492350000000  0.1798080000000 1.0   0.12
S      4 -0.0309700000000  0.1806750000000 -0.2537970000000 1.0   0.02
S      4  0.0309700000000 -0.1806750000000  0.2537970000000 1.0   0.02
Fe     5 -0.5593760000000  0.1244670000000  0.3315960000000 1.0   3.68
Fe     5  0.5593760000000 -0.1244670000000 -0.3315960000000 1.0   3.68
END
