TITL 2LiFeSO4F-200818-175102-128ea6 0.0042 206.083312 -7.56421585E+003 8.00000 8.17116 16 (Pnc2) n - 1
REM
REM Run started: Tue, 18 Aug 2020 18:22:05 +0100 in /lustre/scratch/uccabz1/launch_tmp/launcher_2020-08-18-16-50-57-749861
REM CASTEP 20.1 from code version af48c487+ pr-geom-scf-spinfix Tue Jun 2 15:39:59 2020 +0100
REM Functional Perdew Burke Ernzerhof Relativity Koelling-Harmon Dispersion off
REM Cut-off 340.0000 eV Grid scale 1.7500 Gmax 16.5316 1/A FBSC none
REM MP grid 4 4 2 Offset 0.000 0.000 0.000 No. kpts 4 Spacing 0.07
REM Total runtime: 2278.34 s
REM Overall efficiency: 74.75 %
REM
REM 2LiFeSO4F.cell (6abdf011d38848201efe8211ff585b1c)
REM
REM compiler GCC version 4.9.2
REM options -cpp -iprefix /lustre/shared/ucl/apps/gcc/4.9.2/bin/../lib/gcc/x86_64-unknown-linux-gnu/4.9.2/ -mtune=corei7 -march=x86-64 -g -Og
REM COMMAND_LINE
REM seed 1537690568 658526096 -969732303 -1528425686 945856556 -473631751 1531721368 -897288454 -57027196 54013428 1434466334 122083599
REM
REM S 3|1.8|5|6|7|30:31:32(qc=5)
REM O 2|1.5|12|13|15|20:21(qc=5)
REM Li 1|1.3|8|9|10|10U:20(qc=5)
REM Fe 3|2.2|2.0|1.0|8|9|10|40:41:32(qc=5)
REM F 2|1.6|10|12|13|20:21(qc=5)
REM 
CELL 1.54180    3.96949    4.60957   11.26283   90.00000   90.00000   90.00000
LATT -1
SFAC Li O  F  S  Fe 
Li     1  0.5000000000000 -0.5000000000000  0.3103280000000 1.0  -0.02
Li     1 -0.5000000000000  0.0000000000000 -0.1896720000000 1.0  -0.02
O      2 -0.1967600000000 -0.2026350000000  0.3934720000000 1.0   0.02
O      2 -0.2088450000000  0.1872260000000  0.2323790000000 1.0   0.04
O      2  0.1967600000000  0.2026350000000  0.3934720000000 1.0   0.02
O      2  0.2088450000000 -0.1872260000000  0.2323790000000 1.0   0.04
O      2 -0.1967600000000  0.7026350000000 -0.1065280000000 1.0   0.02
O      2 -0.2088450000000  0.3127740000000 -0.2676210000000 1.0   0.04
O      2  0.1967600000000 -0.7026350000000 -0.1065280000000 1.0   0.02
O      2  0.2088450000000 -0.3127740000000 -0.2676210000000 1.0   0.04
F      3 -0.5000000000000  0.0000000000000  0.0392230000000 1.0   0.12
F      3  0.5000000000000 -0.5000000000000 -0.4607770000000 1.0   0.12
S      4  0.0000000000000 -0.5000000000000 -0.1850660000000 1.0   0.00
S      4  0.0000000000000  0.0000000000000  0.3149340000000 1.0   0.00
Fe     5  0.0000000000000  0.0000000000000  0.0520460000000 1.0   3.77
Fe     5  0.0000000000000 -0.5000000000000 -0.4479540000000 1.0   3.77
END
