TITL 2LiFeSO4F-200804-053924-9f9e5b 0.0019 196.538516 -7.56578434E+003 8.00000 8.09492 16 (P21) n - 1
REM
REM Run started: Tue, 04 Aug 2020 06:22:04 +0100 in /lustre/scratch/uccabz1/launch_tmp/launcher_2020-08-04-04-39-23-204553
REM CASTEP 20.1 from code version af48c487+ pr-geom-scf-spinfix Tue Jun 2 15:39:59 2020 +0100
REM Functional Perdew Burke Ernzerhof Relativity Koelling-Harmon Dispersion off
REM Cut-off 340.0000 eV Grid scale 1.7500 Gmax 16.5316 1/A FBSC none
REM MP grid 3 3 2 Offset 0.000 0.000 0.000 No. kpts 6 Spacing 0.07
REM Total runtime: 2727.43 s
REM Overall efficiency: 72 %
REM
REM 2LiFeSO4F.cell (6abdf011d38848201efe8211ff585b1c)
REM
REM compiler GCC version 4.9.2
REM options -cpp -iprefix /lustre/shared/ucl/apps/gcc/4.9.2/bin/../lib/gcc/x86_64-unknown-linux-gnu/4.9.2/ -mtune=corei7 -march=x86-64 -g -Og
REM COMMAND_LINE
REM seed -2134055292 2049144608 -1614587811 1069775639 -604324830 1421922794 552311582 -2135011201 1474941894 743735857 -268760261 783040297
REM
REM S 3|1.8|5|6|7|30:31:32(qc=5)
REM O 2|1.5|12|13|15|20:21(qc=5)
REM Li 1|1.3|8|9|10|10U:20(qc=5)
REM Fe 3|2.2|2.0|1.0|8|9|10|40:41:32(qc=5)
REM F 2|1.6|10|12|13|20:21(qc=5)
REM 
CELL 1.54180    4.80744    5.39067    7.77835   77.16074   90.00000   90.00000
LATT -1
SFAC Li O  F  S  Fe 
Li     1 -0.3818300000000  0.2434550000000  0.3010200000000 1.0  -0.02
Li     1  0.1181700000000 -0.2434550000000 -0.3010200000000 1.0  -0.02
O      2 -0.1972390000000  0.1988360000000 -0.2418360000000 1.0   0.04
O      2 -0.6427210000000  0.4411670000000 -0.2578110000000 1.0   0.04
O      2 -0.6467190000000 -0.0172210000000 -0.1572610000000 1.0   0.07
O      2 -0.5438810000000  0.1718720000000 -0.4694750000000 1.0   0.02
O      2  0.3027610000000 -0.1988360000000  0.2418360000000 1.0   0.04
O      2 -0.1427210000000 -0.4411670000000  0.2578110000000 1.0   0.04
O      2 -0.1467190000000  0.0172210000000  0.1572610000000 1.0   0.07
O      2 -0.0438810000000 -0.1718720000000  0.4694750000000 1.0   0.02
F      3 -0.1181420000000 -0.3696980000000 -0.1064670000000 1.0   0.10
F      3  0.3818580000000  0.3696980000000  0.1064670000000 1.0   0.10
S      4 -0.4986690000000  0.2064170000000 -0.2892680000000 1.0   0.01
S      4  0.0013310000000 -0.2064170000000  0.2892680000000 1.0   0.01
Fe     5 -0.4294090000000 -0.2690450000000  0.0436680000000 1.0   3.74
Fe     5  0.0705910000000  0.2690450000000 -0.0436680000000 1.0   3.74
END
