TITL 2LiFeSO4F-200819-013223-610a63 -0.0085 222.238327 -7.56297414E+003 7.99987 8.10018 16 (Pmn21) n - 1
REM
REM Run started: Wed, 19 Aug 2020 02:35:06 +0100 in /scratch/scratch/uccabz1/launch_tmp/launcher_2020-08-19-00-32-20-853504
REM CASTEP 19.11| from code version Version unavailable
REM Functional Perdew Burke Ernzerhof Relativity Koelling-Harmon Dispersion off
REM Cut-off 340.0000 eV Grid scale 1.7500 Gmax 16.5316 1/A FBSC none
REM MP grid 3 4 2 Offset 0.000 0.000 0.000 No. kpts 4 Spacing 0.07
REM Total runtime: 4135.27 s
REM Overall efficiency: 82.875 %
REM
REM 2LiFeSO4F.cell (6abdf011d38848201efe8211ff585b1c)
REM
REM compiler GCC version 4.9.2
REM options -cpp -iprefix /scratch/UCL/applications/gcc/4.9.2/bin/../lib/gcc/x86_64-unknown-linux-gnu/4.9.2/ -mtune=corei7 -march=x86-64 -g -O2
REM COMMAND_LINE
REM seed 436438858 734175273 1841776501 -1331900630 -1776746039 -505646784 20546410 104634082 208744194 -1520017621 -1042578779 1859782312
REM
REM S 3|1.8|5|6|7|30:31:32(qc=5)
REM O 2|1.5|12|13|15|20:21(qc=5)
REM Li 1|1.3|8|9|10|10U:20(qc=5)
REM Fe 3|2.2|2.0|1.0|8|9|10|40:41:32(qc=5)
REM F 2|1.6|10|12|13|20:21(qc=5)
REM 
CELL 1.54180    5.14375    4.50072    9.59969   90.00000   90.00000   90.00000
LATT -1
SFAC Li O  F  S  Fe 
Li     1  0.5000000000000  0.1121680000000 -0.2714550000000 1.0  -0.00
Li     1 -0.0000000000000 -0.3878320000000  0.2714550000000 1.0  -0.00
O      2 -0.2616630000000 -0.2840750000000  0.1197070000000 1.0   0.01
O      2 -0.2511380000000  0.2669810000000 -0.4299050000000 1.0   0.35
O      2 -0.2383370000000 -0.7840750000000 -0.1197070000000 1.0   0.01
O      2 -0.2488620000000 -0.2330190000000  0.4299050000000 1.0   0.35
O      2  0.2383370000000 -0.7840750000000 -0.1197070000000 1.0   0.01
O      2  0.2488620000000 -0.2330190000000  0.4299050000000 1.0   0.35
O      2  0.2616630000000 -0.2840750000000  0.1197070000000 1.0   0.01
O      2  0.2511380000000  0.2669810000000 -0.4299050000000 1.0   0.35
F      3 -0.0000000000000  0.2171140000000  0.2944870000000 1.0   0.19
F      3  0.5000000000000 -0.2828860000000 -0.2944870000000 1.0   0.19
S      4 -0.0000000000000  0.3765280000000 -0.1581130000000 1.0   0.01
S      4  0.5000000000000 -0.1234720000000  0.1581130000000 1.0   0.01
Fe     5 -0.0000000000000  0.0533740000000 -0.5187410000000 1.0   3.10
Fe     5  0.5000000000000  0.5533740000000  0.5187410000000 1.0   3.10
END
