TITL 2LiFeSO4F-200804-050607-4a0a44 -0.0396 249.772345 -7.56467917E+003 8.00000 8.10075 16 (Cc) n - 1
REM
REM Run started: Tue, 04 Aug 2020 08:20:37 +0100 in /lustre/scratch/uccabz1/launch_tmp/launcher_2020-08-04-04-06-01-470830
REM CASTEP 20.1 from code version af48c487+ pr-geom-scf-spinfix Tue Jun 2 15:39:59 2020 +0100
REM Functional Perdew Burke Ernzerhof Relativity Koelling-Harmon Dispersion off
REM Cut-off 340.0000 eV Grid scale 1.7500 Gmax 16.5316 1/A FBSC none
REM MP grid 4 3 3 Offset 0.000 0.000 0.000 No. kpts 12 Spacing 0.07
REM Total runtime: 12990.8 s
REM Overall efficiency: 86.8462 %
REM
REM 2LiFeSO4F.cell (6abdf011d38848201efe8211ff585b1c)
REM
REM compiler GCC version 4.9.2
REM options -cpp -iprefix /lustre/shared/ucl/apps/gcc/4.9.2/bin/../lib/gcc/x86_64-unknown-linux-gnu/4.9.2/ -mtune=corei7 -march=x86-64 -g -Og
REM COMMAND_LINE
REM seed 826386551 -1727502346 683997204 665239268 -1201691853 1764445359 572137770 -1839078057 -1312969681 -202470413 756486758 -175452955
REM
REM S 3|1.8|5|6|7|30:31:32(qc=5)
REM O 2|1.5|12|13|15|20:21(qc=5)
REM Li 1|1.3|8|9|10|10U:20(qc=5)
REM Fe 3|2.2|2.0|1.0|8|9|10|40:41:32(qc=5)
REM F 2|1.6|10|12|13|20:21(qc=5)
REM 
CELL 1.54180    5.72005    7.71077    7.71077   63.85928   60.78717   60.78717
LATT -1
SFAC Li O  F  S  Fe 
Li     1 -0.3500210000000  0.2151480000000  0.2154080000000 1.0  -0.01
Li     1 -0.8500210000000  0.2154080000000  0.2151480000000 1.0  -0.01
O      2 -0.2782370000000 -0.3090060000000  0.4995260000000 1.0   0.09
O      2 -0.5396320000000  0.0217550000000  0.3115170000000 1.0   0.01
O      2 -0.5251900000000 -0.2982720000000  0.3027820000000 1.0   0.07
O      2 -0.0860340000000 -0.2086630000000  0.1191040000000 1.0   0.02
O      2  0.2217630000000  0.4995260000000 -0.3090060000000 1.0   0.09
O      2 -0.0396320000000  0.3115170000000  0.0217550000000 1.0   0.01
O      2 -0.0251900000000  0.3027820000000 -0.2982720000000 1.0   0.07
O      2  0.4139660000000  0.1191040000000 -0.2086630000000 1.0   0.02
F      3  0.9020120000000  0.0435870000000 -0.6107710000000 1.0   0.10
F      3  0.4020120000000 -0.6107710000000  0.0435870000000 1.0   0.10
S      4 -0.3534430000000 -0.1933910000000  0.2941750000000 1.0   0.00
S      4  0.1465570000000  0.2941750000000 -0.1933910000000 1.0   0.00
Fe     5  0.0582270000000 -0.2518360000000  0.4797720000000 1.0   3.71
Fe     5 -0.4417730000000  0.4797720000000 -0.2518360000000 1.0   3.71
END
