TITL 2LiFeSO4F-200804-045016-33d409 0.0265 228.671938 -7.56124459E+003 5.98148 6.58011 16 (Cm) n - 1
REM
REM Run started: Tue, 04 Aug 2020 08:22:50 +0100 in /lustre/scratch/uccabz1/launch_tmp/launcher_2020-08-04-03-50-13-307767
REM CASTEP 20.1 from code version af48c487+ pr-geom-scf-spinfix Tue Jun 2 15:39:59 2020 +0100
REM Functional Perdew Burke Ernzerhof Relativity Koelling-Harmon Dispersion off
REM Cut-off 340.0000 eV Grid scale 1.7500 Gmax 16.5316 1/A FBSC none
REM MP grid 3 3 4 Offset 0.000 0.000 0.000 No. kpts 12 Spacing 0.07
REM Total runtime: 14334.7 s
REM Overall efficiency: 81.4545 %
REM
REM 2LiFeSO4F.cell (6abdf011d38848201efe8211ff585b1c)
REM
REM compiler GCC version 4.9.2
REM options -cpp -iprefix /lustre/shared/ucl/apps/gcc/4.9.2/bin/../lib/gcc/x86_64-unknown-linux-gnu/4.9.2/ -mtune=corei7 -march=x86-64 -g -Og
REM COMMAND_LINE
REM seed 1689789245 -914796172 2094270236 -228203164 1292251413 350715100 -1798053256 1022552965 -72120617 435880511 246385956 -1687415772
REM
REM S 3|1.8|5|6|7|30:31:32(qc=5)
REM O 2|1.5|12|13|15|20:21(qc=5)
REM Li 1|1.3|8|9|10|10U:20(qc=5)
REM Fe 3|2.2|2.0|1.0|8|9|10|40:41:32(qc=5)
REM F 2|1.6|10|12|13|20:21(qc=5)
REM 
CELL 1.54180    6.93364    6.93364    6.63157  117.61950  117.61950   95.98575
LATT -1
SFAC Li O  F  S  Fe 
Li     1 -0.3153470000000 -0.8275950000000 -0.5697150000000 1.0  -0.00
Li     1 -0.8275950000000 -0.3153470000000 -0.5697150000000 1.0  -0.00
O      2  0.6429110000000 -0.1134090000000  0.4783380000000 1.0  -0.03
O      2  0.0337970000000 -0.1888330000000  0.1781800000000 1.0   0.20
O      2  0.3712550000000  0.1116620000000  0.1142800000000 1.0   0.28
O      2  0.2680740000000  0.0493640000000  0.6626710000000 1.0   0.06
O      2 -0.1134090000000  0.6429110000000  0.4783380000000 1.0  -0.03
O      2 -0.1888330000000  0.0337970000000  0.1781800000000 1.0   0.20
O      2  0.1116620000000  0.3712550000000  0.1142800000000 1.0   0.28
O      2  0.0493640000000  0.2680740000000  0.6626710000000 1.0   0.06
F      3  0.4262660000000 -0.3237130000000 -0.2974570000000 1.0   0.12
F      3 -0.3237130000000  0.4262660000000 -0.2974570000000 1.0   0.12
S      4  0.1187170000000  0.1187170000000  0.4506950000000 1.0   0.07
S      4  0.8383770000000  0.8383770000000  0.6448770000000 1.0   0.01
Fe     5  0.2002190000000  0.2002190000000 -0.0583850000000 1.0   1.81
Fe     5 -0.2621870000000 -0.2621870000000 -0.0791220000000 1.0   2.85
END
