TITL 2LiFeSO4F-200818-224929-9939f1 -0.0446 272.630093 -7.56521167E+003 8.00000 8.23650 16 (Cm) n - 1
REM
REM Run started: Wed, 19 Aug 2020 00:48:46 +0100 in /lustre/scratch/uccabz1/launch_tmp/launcher_2020-08-18-21-49-28-000191
REM CASTEP 20.1 from code version af48c487+ pr-geom-scf-spinfix Tue Jun 2 15:39:59 2020 +0100
REM Functional Perdew Burke Ernzerhof Relativity Koelling-Harmon Dispersion off
REM Cut-off 340.0000 eV Grid scale 1.7500 Gmax 16.5316 1/A FBSC none
REM MP grid 4 3 2 Offset 0.000 0.000 0.000 No. kpts 12 Spacing 0.07
REM Total runtime: 7896.42 s
REM Overall efficiency: 77.125 %
REM
REM 2LiFeSO4F.cell (6abdf011d38848201efe8211ff585b1c)
REM
REM compiler GCC version 4.9.2
REM options -cpp -iprefix /lustre/shared/ucl/apps/gcc/4.9.2/bin/../lib/gcc/x86_64-unknown-linux-gnu/4.9.2/ -mtune=corei7 -march=x86-64 -g -Og
REM COMMAND_LINE
REM seed 1393759827 1881340218 1688973903 -1299452251 -260222509 1474331793 -829408238 -1019083535 1505002646 -1992949073 -1818064882 -806975468
REM
REM S 3|1.8|5|6|7|30:31:32(qc=5)
REM O 2|1.5|12|13|15|20:21(qc=5)
REM Li 1|1.3|8|9|10|10U:20(qc=5)
REM Fe 3|2.2|2.0|1.0|8|9|10|40:41:32(qc=5)
REM F 2|1.6|10|12|13|20:21(qc=5)
REM 
CELL 1.54180    4.54386    7.53817    9.03831  111.98883  100.41150   99.75411
LATT -1
SFAC Li O  F  S  Fe 
Li     1  0.3395290000000  0.3187640000000 -0.3364300000000 1.0  -0.02
Li     1 -0.3240410000000 -0.3448060000000  0.3364300000000 1.0  -0.02
O      2 -0.2033210000000  0.2093590000000  0.2091200000000 1.0   0.08
O      2 -0.0032250000000  0.5303980000000  0.4448150000000 1.0   0.05
O      2  0.2703420000000  0.4450080000000  0.2259210000000 1.0   0.01
O      2  0.2872450000000  0.2745370000000  0.4123080000000 1.0   0.05
O      2 -0.4124410000000  0.0002390000000 -0.2091200000000 1.0   0.08
O      2 -0.4480400000000  0.0855830000000 -0.4448150000000 1.0   0.05
O      2  0.0444210000000  0.2190870000000 -0.2259210000000 1.0   0.01
O      2 -0.1250620000000 -0.1377710000000 -0.4123080000000 1.0   0.05
F      3 -0.6213510000000 -0.4142620000000 -0.2456130000000 1.0   0.14
F      3 -0.3757370000000 -0.1686490000000  0.2456130000000 1.0   0.14
S      4  0.0917120000000  0.3658710000000  0.3182210000000 1.0   0.01
S      4 -0.2265090000000  0.0476500000000 -0.3182210000000 1.0   0.01
Fe     5  0.2199580000000 -0.2417040000000 -0.3205890000000 1.0   3.68
Fe     5  0.5405470000000  0.0788850000000  0.3205890000000 1.0   3.68
END
