TITL 2LiFeSO4F-200804-042124-12203e 0.0347 245.701826 -7.56459483E+003 8.00000 8.07240 16 (C2/m) n - 1
REM
REM Run started: Tue, 04 Aug 2020 05:26:21 +0100 in /lustre/scratch/uccabz1/launch_tmp/launcher_2020-08-04-03-21-21-221811
REM CASTEP 20.1 from code version af48c487+ pr-geom-scf-spinfix Tue Jun 2 15:39:59 2020 +0100
REM Functional Perdew Burke Ernzerhof Relativity Koelling-Harmon Dispersion off
REM Cut-off 340.0000 eV Grid scale 1.7500 Gmax 16.5316 1/A FBSC none
REM MP grid 3 3 3 Offset 0.000 0.000 0.000 No. kpts 10 Spacing 0.07
REM Total runtime: 4449.44 s
REM Overall efficiency: 93.4286 %
REM
REM 2LiFeSO4F.cell (6abdf011d38848201efe8211ff585b1c)
REM
REM compiler GCC version 4.9.2
REM options -cpp -iprefix /lustre/shared/ucl/apps/gcc/4.9.2/bin/../lib/gcc/x86_64-unknown-linux-gnu/4.9.2/ -mtune=corei7 -march=x86-64 -g -Og
REM COMMAND_LINE
REM seed 1825489390 -231757584 1247720858 -856316162 1634779720 -19111465 -2071271936 -846015508 -954428634 1854771683 304680233 1548286758
REM
REM S 3|1.8|5|6|7|30:31:32(qc=5)
REM O 2|1.5|12|13|15|20:21(qc=5)
REM Li 1|1.3|8|9|10|10U:20(qc=5)
REM Fe 3|2.2|2.0|1.0|8|9|10|40:41:32(qc=5)
REM F 2|1.6|10|12|13|20:21(qc=5)
REM 
CELL 1.54180    6.28239    6.28239    6.23391   88.92395   88.92395   92.58391
LATT -1
SFAC Li O  F  S  Fe 
Li     1  0.4039630000000  0.4039630000000  0.2348300000000 1.0  -0.02
Li     1 -0.4039630000000 -0.4039630000000 -0.2348300000000 1.0  -0.02
O      2  0.0234880000000 -0.2881800000000  0.4319240000000 1.0   0.06
O      2 -0.2951390000000 -0.6036090000000  0.3142530000000 1.0   0.03
O      2  0.2881800000000 -0.0234880000000 -0.4319240000000 1.0   0.06
O      2  0.6036090000000  0.2951390000000 -0.3142530000000 1.0   0.03
O      2 -0.0234880000000  0.2881800000000 -0.4319240000000 1.0   0.06
O      2  0.2951390000000  0.6036090000000 -0.3142530000000 1.0   0.03
O      2 -0.2881800000000  0.0234880000000  0.4319240000000 1.0   0.06
O      2 -0.6036090000000 -0.2951390000000  0.3142530000000 1.0   0.03
F      3 -0.2639600000000 -0.2639600000000 -0.0349620000000 1.0   0.12
F      3  0.2639600000000  0.2639600000000  0.0349620000000 1.0   0.12
S      4 -0.2478610000000  0.2478610000000 -0.5000000000000 1.0   0.02
S      4  0.2478610000000 -0.2478610000000 -0.5000000000000 1.0   0.02
Fe     5  0.2361270000000  0.2361270000000 -0.2615680000000 1.0   3.70
Fe     5 -0.2361270000000 -0.2361270000000  0.2615680000000 1.0   3.70
END
