TITL 2LiFeSO4F-200804-054448-c4cde9 -0.0049 234.494452 -7.56463159E+003 8.00000 8.10714 16 (Cm) n - 1
REM
REM Run started: Tue, 04 Aug 2020 08:19:53 +0100 in /lustre/scratch/uccabz1/launch_tmp/launcher_2020-08-04-04-44-46-596103
REM CASTEP 20.1 from code version af48c487+ pr-geom-scf-spinfix Tue Jun 2 15:39:59 2020 +0100
REM Functional Perdew Burke Ernzerhof Relativity Koelling-Harmon Dispersion off
REM Cut-off 340.0000 eV Grid scale 1.7500 Gmax 16.5316 1/A FBSC none
REM MP grid 3 3 3 Offset 0.000 0.000 0.000 No. kpts 10 Spacing 0.07
REM Total runtime: 10345.2 s
REM Overall efficiency: 94.875 %
REM
REM 2LiFeSO4F.cell (6abdf011d38848201efe8211ff585b1c)
REM
REM compiler GCC version 4.9.2
REM options -cpp -iprefix /lustre/shared/ucl/apps/gcc/4.9.2/bin/../lib/gcc/x86_64-unknown-linux-gnu/4.9.2/ -mtune=corei7 -march=x86-64 -g -Og
REM COMMAND_LINE
REM seed 1244001987 -223117480 2074427384 934770387 958943932 1763837699 1820626521 -996438101 116949082 -877762972 1534885696 -308538402
REM
REM S 3|1.8|5|6|7|30:31:32(qc=5)
REM O 2|1.5|12|13|15|20:21(qc=5)
REM Li 1|1.3|8|9|10|10U:20(qc=5)
REM Fe 3|2.2|2.0|1.0|8|9|10|40:41:32(qc=5)
REM F 2|1.6|10|12|13|20:21(qc=5)
REM 
CELL 1.54180    6.23165    6.23165    6.08777   94.74163   94.74163   92.48059
LATT -1
SFAC Li O  F  S  Fe 
Li     1 -0.3760790000000 -0.3760790000000 -0.0497080000000 1.0  -0.04
Li     1 -0.0447250000000 -0.0447250000000  0.3300600000000 1.0  -0.01
O      2 -0.2972040000000  0.4125240000000 -0.3035810000000 1.0   0.05
O      2 -0.2909350000000  0.0306820000000 -0.4445360000000 1.0   0.04
O      2 -0.5437930000000  0.1450100000000 -0.1712070000000 1.0   0.06
O      2 -0.1624330000000  0.1509690000000 -0.0551200000000 1.0   0.05
O      2  0.4125240000000 -0.2972040000000 -0.3035810000000 1.0   0.05
O      2  0.0306820000000 -0.2909350000000 -0.4445360000000 1.0   0.04
O      2  0.1450100000000 -0.5437930000000 -0.1712070000000 1.0   0.06
O      2  0.1509690000000 -0.1624330000000 -0.0551200000000 1.0   0.05
F      3 -0.2666000000000 -0.2666000000000  0.2124840000000 1.0   0.05
F      3  0.1639070000000  0.1639070000000  0.2856600000000 1.0   0.15
S      4 -0.3237630000000  0.1808430000000 -0.2448310000000 1.0   0.02
S      4  0.1808430000000 -0.3237630000000 -0.2448310000000 1.0   0.02
Fe     5 -0.3305260000000 -0.3305260000000  0.5143840000000 1.0   3.64
Fe     5  0.1804520000000  0.1804520000000 -0.0192940000000 1.0   3.78
END
