TITL 2LiFeSO4F-200818-235733-9e9da3 -0.0357 227.345421 -7.55991510E+003 4.80450 5.35341 16 (Pmc21) n - 1
REM
REM Run started: Wed, 19 Aug 2020 01:29:01 +0100 in /lustre/scratch/uccabz1/launch_tmp/launcher_2020-08-18-22-57-32-044867
REM CASTEP 20.1 from code version af48c487+ pr-geom-scf-spinfix Tue Jun 2 15:39:59 2020 +0100
REM Functional Perdew Burke Ernzerhof Relativity Koelling-Harmon Dispersion off
REM Cut-off 340.0000 eV Grid scale 1.7500 Gmax 16.5316 1/A FBSC none
REM MP grid 3 3 3 Offset 0.000 0.000 0.000 No. kpts 8 Spacing 0.07
REM Total runtime: 6096.95 s
REM Overall efficiency: 93.2222 %
REM
REM 2LiFeSO4F.cell (6abdf011d38848201efe8211ff585b1c)
REM
REM compiler GCC version 4.9.2
REM options -cpp -iprefix /lustre/shared/ucl/apps/gcc/4.9.2/bin/../lib/gcc/x86_64-unknown-linux-gnu/4.9.2/ -mtune=corei7 -march=x86-64 -g -Og
REM COMMAND_LINE
REM seed -534892605 1175953164 -248773922 1593933945 -592815382 1653134813 -1366066241 -1355629471 -1723082527 1718514719 1343960752 616920768
REM
REM S 3|1.8|5|6|7|30:31:32(qc=5)
REM O 2|1.5|12|13|15|20:21(qc=5)
REM Li 1|1.3|8|9|10|10U:20(qc=5)
REM Fe 3|2.2|2.0|1.0|8|9|10|40:41:32(qc=5)
REM F 2|1.6|10|12|13|20:21(qc=5)
REM 
CELL 1.54180    7.01764    6.32124    5.12499   90.00000   90.00000   90.00000
LATT -1
SFAC Li O  F  S  Fe 
Li     1  0.0000000000000 -0.1509390000000 -0.4331380000000 1.0  -0.00
Li     1  0.0000000000000  0.3490610000000  0.4331380000000 1.0  -0.00
O      2  0.3391400000000 -0.6490790000000  0.0110450000000 1.0   0.06
O      2  0.3396190000000 -0.1559910000000 -0.4648800000000 1.0   0.05
O      2 -0.3391400000000 -0.1490790000000 -0.0110450000000 1.0   0.06
O      2 -0.3396190000000  0.3440090000000  0.4648800000000 1.0   0.05
O      2  0.3391400000000 -0.1490790000000 -0.0110450000000 1.0   0.06
O      2  0.3396190000000  0.3440090000000  0.4648800000000 1.0   0.05
O      2 -0.3391400000000 -0.6490790000000  0.0110450000000 1.0   0.06
O      2 -0.3396190000000 -0.1559910000000 -0.4648800000000 1.0   0.05
F      3  0.0000000000000  0.1203770000000 -0.3789740000000 1.0  -0.02
F      3  0.0000000000000 -0.3796230000000  0.3789740000000 1.0  -0.02
S      4 -0.5000000000000 -0.0950710000000 -0.2394310000000 1.0  -0.03
S      4 -0.5000000000000  0.4049290000000  0.2394310000000 1.0  -0.03
Fe     5 -0.5000000000000 -0.2066130000000  0.2590670000000 1.0   2.24
Fe     5  0.5000000000000  0.2933870000000 -0.2590670000000 1.0   2.24
END
