TITL 2LiFeSO4F-200819-020024-d0f94c 0.0315 214.611514 -7.56578461E+003 8.00000 8.11322 16 (C2) n - 1
REM
REM Run started: Wed, 19 Aug 2020 04:16:01 +0100 in /scratch/scratch/uccabz1/launch_tmp/launcher_2020-08-19-01-00-21-967377
REM CASTEP 19.11| from code version Version unavailable
REM Functional Perdew Burke Ernzerhof Relativity Koelling-Harmon Dispersion off
REM Cut-off 340.0000 eV Grid scale 1.7500 Gmax 16.5316 1/A FBSC none
REM MP grid 3 3 3 Offset 0.000 0.000 0.000 No. kpts 10 Spacing 0.07
REM Total runtime: 8243.25 s
REM Overall efficiency: 94.5 %
REM
REM 2LiFeSO4F.cell (6abdf011d38848201efe8211ff585b1c)
REM
REM compiler GCC version 4.9.2
REM options -cpp -iprefix /scratch/UCL/applications/gcc/4.9.2/bin/../lib/gcc/x86_64-unknown-linux-gnu/4.9.2/ -mtune=corei7 -march=x86-64 -g -O2
REM COMMAND_LINE
REM seed 647916586 -1964464610 1600502416 -1122838800 700120102 -100193168 -297805277 -902799419 -1356125966 1333604307 2066722139 1498308749
REM
REM S 3|1.8|5|6|7|30:31:32(qc=5)
REM O 2|1.5|12|13|15|20:21(qc=5)
REM Li 1|1.3|8|9|10|10U:20(qc=5)
REM Fe 3|2.2|2.0|1.0|8|9|10|40:41:32(qc=5)
REM F 2|1.6|10|12|13|20:21(qc=5)
REM 
CELL 1.54180    6.06092    6.06092    7.72249   65.53706   65.53706   59.38236
LATT -1
SFAC Li O  F  S  Fe 
Li     1  0.0046870000000  0.3706620000000 -0.7527240000000 1.0  -0.04
Li     1 -0.3706620000000 -0.0046870000000  0.7527240000000 1.0  -0.04
O      2 -0.6112740000000  0.2399650000000  0.5795380000000 1.0   0.04
O      2 -0.6299700000000  0.6040100000000  0.2745070000000 1.0   0.06
O      2 -0.6285470000000  0.1970350000000  0.2834850000000 1.0   0.06
O      2 -0.2201820000000  0.1853750000000  0.2937370000000 1.0   0.01
O      2  0.7600350000000 -0.3887260000000 -0.5795380000000 1.0   0.04
O      2  0.3959900000000 -0.3700300000000 -0.2745070000000 1.0   0.06
O      2  0.8029650000000 -0.3714530000000 -0.2834850000000 1.0   0.06
O      2  0.8146250000000 -0.7798180000000 -0.2937370000000 1.0   0.01
F      3  0.3452690000000  0.1121160000000 -0.0298200000000 1.0   0.09
F      3 -0.1121160000000 -0.3452690000000  0.0298200000000 1.0   0.09
S      4 -0.5136340000000  0.3073360000000  0.3569340000000 1.0   0.02
S      4  0.6926640000000 -0.4863660000000 -0.3569340000000 1.0   0.02
Fe     5  0.1400480000000 -0.5374400000000  0.7989450000000 1.0   3.76
Fe     5  0.5374400000000 -0.1400480000000 -0.7989450000000 1.0   3.76
END
