TITL 2LiFeSO4F-200804-042135-1e4622 -0.0193 215.773061 -7.56530553E+003 8.00000 8.08983 16 (Pc) n - 1
REM
REM Run started: Tue, 04 Aug 2020 05:37:56 +0100 in /lustre/scratch/uccabz1/launch_tmp/launcher_2020-08-04-03-21-34-345158
REM CASTEP 20.1 from code version af48c487+ pr-geom-scf-spinfix Tue Jun 2 15:39:59 2020 +0100
REM Functional Perdew Burke Ernzerhof Relativity Koelling-Harmon Dispersion off
REM Cut-off 340.0000 eV Grid scale 1.7500 Gmax 16.5316 1/A FBSC none
REM MP grid 3 3 2 Offset 0.000 0.000 0.000 No. kpts 5 Spacing 0.07
REM Total runtime: 5163.74 s
REM Overall efficiency: 79.4444 %
REM
REM 2LiFeSO4F.cell (6abdf011d38848201efe8211ff585b1c)
REM
REM compiler GCC version 4.9.2
REM options -cpp -iprefix /lustre/shared/ucl/apps/gcc/4.9.2/bin/../lib/gcc/x86_64-unknown-linux-gnu/4.9.2/ -mtune=corei7 -march=x86-64 -g -Og
REM COMMAND_LINE
REM seed 664212245 -843499129 2111793315 -957705515 143478071 1979419614 1878862656 -2059629482 559768267 -1113618225 448569787 1869669736
REM
REM S 3|1.8|5|6|7|30:31:32(qc=5)
REM O 2|1.5|12|13|15|20:21(qc=5)
REM Li 1|1.3|8|9|10|10U:20(qc=5)
REM Fe 3|2.2|2.0|1.0|8|9|10|40:41:32(qc=5)
REM F 2|1.6|10|12|13|20:21(qc=5)
REM 
CELL 1.54180    5.11355    5.70447    7.47644   90.00000   90.00000   98.35681
LATT -1
SFAC Li O  F  S  Fe 
Li     1 -0.4626400000000  0.0386070000000 -0.1354500000000 1.0  -0.02
Li     1 -0.4626400000000 -0.4613930000000  0.1354500000000 1.0  -0.02
O      2  0.3206480000000 -0.0416040000000  0.0975440000000 1.0   0.01
O      2  0.0511020000000 -0.0469240000000  0.3743290000000 1.0   0.08
O      2  0.2116350000000 -0.4058030000000  0.2698330000000 1.0   0.05
O      2 -0.1406190000000 -0.2449350000000  0.0989560000000 1.0   0.01
O      2  0.3206480000000  0.4583960000000 -0.0975440000000 1.0   0.01
O      2  0.0511020000000  0.4530760000000 -0.3743290000000 1.0   0.08
O      2  0.2116350000000  0.0941970000000 -0.2698330000000 1.0   0.05
O      2 -0.1406190000000  0.2550650000000 -0.0989560000000 1.0   0.01
F      3 -0.3641620000000  0.3350020000000  0.3161020000000 1.0   0.14
F      3 -0.3641620000000 -0.1649980000000 -0.3161020000000 1.0   0.14
S      4  0.1087530000000 -0.1845760000000  0.1996160000000 1.0   0.01
S      4  0.1087530000000  0.3154240000000 -0.1996160000000 1.0   0.01
Fe     5 -0.0150900000000  0.2984150000000  0.3662140000000 1.0   3.73
Fe     5 -0.0150900000000 -0.2015850000000 -0.3662140000000 1.0   3.73
END
