TITL 2LiFeSO4F-200819-022620-2d683d 0.0588 247.495949 -7.56559358E+003 8.00000 8.08068 16 (Pc) n - 1
REM
REM Run started: Wed, 19 Aug 2020 04:06:53 +0100 in /lustre/scratch/uccabz1/launch_tmp/launcher_2020-08-19-01-26-16-902354
REM CASTEP 20.1 from code version af48c487+ pr-geom-scf-spinfix Tue Jun 2 15:39:59 2020 +0100
REM Functional Perdew Burke Ernzerhof Relativity Koelling-Harmon Dispersion off
REM Cut-off 340.0000 eV Grid scale 1.7500 Gmax 16.5316 1/A FBSC none
REM MP grid 3 3 2 Offset 0.000 0.000 0.000 No. kpts 5 Spacing 0.07
REM Total runtime: 6654.21 s
REM Overall efficiency: 74.0833 %
REM
REM 2LiFeSO4F.cell (6abdf011d38848201efe8211ff585b1c)
REM
REM compiler GCC version 4.9.2
REM options -cpp -iprefix /lustre/shared/ucl/apps/gcc/4.9.2/bin/../lib/gcc/x86_64-unknown-linux-gnu/4.9.2/ -mtune=corei7 -march=x86-64 -g -Og
REM COMMAND_LINE
REM seed -199626695 1707349351 -820167274 1913505976 568695068 1185819093 988113737 -881695203 1620262759 1065735073 -278342051 -1452699755
REM
REM S 3|1.8|5|6|7|30:31:32(qc=5)
REM O 2|1.5|12|13|15|20:21(qc=5)
REM Li 1|1.3|8|9|10|10U:20(qc=5)
REM Fe 3|2.2|2.0|1.0|8|9|10|40:41:32(qc=5)
REM F 2|1.6|10|12|13|20:21(qc=5)
REM 
CELL 1.54180    5.24464    5.84441    8.28826   90.00000   90.00000  103.04293
LATT -1
SFAC Li O  F  S  Fe 
Li     1  0.2198960000000 -0.5785790000000  0.0154180000000 1.0  -0.01
Li     1 -0.2801040000000 -0.0785790000000 -0.0154180000000 1.0  -0.01
O      2 -0.3827920000000  0.2969210000000 -0.3190400000000 1.0   0.06
O      2 -0.0144310000000  0.2358650000000 -0.4862400000000 1.0   0.07
O      2 -0.1553180000000 -0.0077350000000 -0.2425630000000 1.0   0.02
O      2  0.0748820000000  0.4111220000000 -0.2229360000000 1.0   0.05
O      2  0.1172080000000 -0.2030790000000  0.3190400000000 1.0   0.06
O      2  0.4855690000000 -0.2641350000000  0.4862400000000 1.0   0.07
O      2  0.3446820000000 -0.5077350000000  0.2425630000000 1.0   0.02
O      2  0.5748820000000 -0.0888780000000  0.2229360000000 1.0   0.05
F      3 -0.0123910000000  0.1525680000000  0.0803240000000 1.0   0.08
F      3  0.4876090000000 -0.3474320000000 -0.0803240000000 1.0   0.08
S      4 -0.1229340000000  0.2286430000000 -0.3162460000000 1.0   0.01
S      4  0.3770660000000 -0.2713570000000  0.3162460000000 1.0   0.01
Fe     5 -0.5484020000000 -0.4250720000000 -0.3088220000000 1.0   3.72
Fe     5 -0.0484020000000  0.0749280000000  0.3088220000000 1.0   3.72
END
