TITL 2LiFeSO4F-200818-194211-bb3e9c 0.0366 229.825988 -7.56537879E+003 8.00000 8.09279 16 (P-1) n - 1
REM
REM Run started: Tue, 18 Aug 2020 22:51:39 +0100 in /lustre/scratch/uccabz1/launch_tmp/launcher_2020-08-18-18-42-08-036946
REM CASTEP 20.1 from code version af48c487+ pr-geom-scf-spinfix Tue Jun 2 15:39:59 2020 +0100
REM Functional Perdew Burke Ernzerhof Relativity Koelling-Harmon Dispersion off
REM Cut-off 340.0000 eV Grid scale 1.7500 Gmax 16.5316 1/A FBSC none
REM MP grid 3 3 3 Offset 0.000 0.000 0.000 No. kpts 14 Spacing 0.07
REM Total runtime: 12732.8 s
REM Overall efficiency: 95.4167 %
REM
REM 2LiFeSO4F.cell (6abdf011d38848201efe8211ff585b1c)
REM
REM compiler GCC version 4.9.2
REM options -cpp -iprefix /lustre/shared/ucl/apps/gcc/4.9.2/bin/../lib/gcc/x86_64-unknown-linux-gnu/4.9.2/ -mtune=corei7 -march=x86-64 -g -Og
REM COMMAND_LINE
REM seed -845601415 1642141299 -1115426136 45849335 -1131567465 -439236871 557020400 2006479688 -1465005486 -1477419084 229468104 1659332983
REM
REM S 3|1.8|5|6|7|30:31:32(qc=5)
REM O 2|1.5|12|13|15|20:21(qc=5)
REM Li 1|1.3|8|9|10|10U:20(qc=5)
REM Fe 3|2.2|2.0|1.0|8|9|10|40:41:32(qc=5)
REM F 2|1.6|10|12|13|20:21(qc=5)
REM 
CELL 1.54180    6.15895    5.79964    6.49786   84.31977   90.17543   84.36387
LATT -1
SFAC Li O  F  S  Fe 
Li     1 -0.1266180000000 -0.0123840000000 -0.1522150000000 1.0  -0.02
Li     1  0.1266180000000  0.0123840000000  0.1522150000000 1.0  -0.02
O      2 -0.2218610000000  0.6709270000000 -0.0783470000000 1.0   0.05
O      2 -0.1223480000000  0.3253100000000 -0.2660040000000 1.0   0.04
O      2 -0.2367080000000  0.7145350000000 -0.4474630000000 1.0   0.07
O      2 -0.5040260000000  0.4877740000000 -0.2549550000000 1.0   0.06
O      2  0.2218610000000 -0.6709270000000  0.0783470000000 1.0   0.05
O      2  0.1223480000000 -0.3253100000000  0.2660040000000 1.0   0.04
O      2  0.2367080000000 -0.7145350000000  0.4474630000000 1.0   0.07
O      2  0.5040260000000 -0.4877740000000  0.2549550000000 1.0   0.06
F      3  0.1778300000000 -0.0185650000000 -0.1364720000000 1.0   0.08
F      3 -0.1778300000000  0.0185650000000  0.1364720000000 1.0   0.08
S      4 -0.2736430000000  0.5453570000000 -0.2618670000000 1.0   0.03
S      4  0.2736430000000 -0.5453570000000  0.2618670000000 1.0   0.03
Fe     5 -0.2379940000000 -0.3035570000000  0.2426720000000 1.0   3.71
Fe     5  0.2379940000000  0.3035570000000 -0.2426720000000 1.0   3.71
END
