TITL 2LiFeSO4F-200819-015147-72ad24 -0.0092 207.714040 -7.56550559E+003 8.00000 8.08544 16 (C2) n - 1
REM
REM Run started: Wed, 19 Aug 2020 04:04:44 +0100 in /lustre/scratch/uccabz1/launch_tmp/launcher_2020-08-19-00-51-39-917196
REM CASTEP 20.1 from code version af48c487+ pr-geom-scf-spinfix Tue Jun 2 15:39:59 2020 +0100
REM Functional Perdew Burke Ernzerhof Relativity Koelling-Harmon Dispersion off
REM Cut-off 340.0000 eV Grid scale 1.7500 Gmax 16.5316 1/A FBSC none
REM MP grid 3 4 4 Offset 0.000 0.000 0.000 No. kpts 16 Spacing 0.07
REM Total runtime: 8374.82 s
REM Overall efficiency: 94.3333 %
REM
REM 2LiFeSO4F.cell (6abdf011d38848201efe8211ff585b1c)
REM
REM compiler GCC version 4.9.2
REM options -cpp -iprefix /lustre/shared/ucl/apps/gcc/4.9.2/bin/../lib/gcc/x86_64-unknown-linux-gnu/4.9.2/ -mtune=corei7 -march=x86-64 -g -Og
REM COMMAND_LINE
REM seed -1839925425 -1162913679 1393976956 2103766197 -404654390 -1114449378 1716483961 -115258581 385600191 985448209 -1015837613 1147961689
REM
REM S 3|1.8|5|6|7|30:31:32(qc=5)
REM O 2|1.5|12|13|15|20:21(qc=5)
REM Li 1|1.3|8|9|10|10U:20(qc=5)
REM Fe 3|2.2|2.0|1.0|8|9|10|40:41:32(qc=5)
REM F 2|1.6|10|12|13|20:21(qc=5)
REM 
CELL 1.54180    6.11223    8.03819    8.03819   35.54095   66.07871   66.07871
LATT -1
SFAC Li O  F  S  Fe 
Li     1 -0.1993430000000 -0.2015400000000 -0.1955920000000 1.0  -0.02
Li     1  0.1993430000000  0.1955920000000  0.2015400000000 1.0  -0.02
O      2  0.0287560000000 -0.5191710000000 -0.1224290000000 1.0   0.01
O      2  0.3221610000000 -0.2040760000000 -0.5579590000000 1.0   0.04
O      2 -0.0630630000000 -0.1927880000000 -0.5930770000000 1.0   0.07
O      2  0.2507930000000 -0.6259040000000 -0.3665860000000 1.0   0.04
O      2 -0.0287560000000  0.1224290000000  0.5191710000000 1.0   0.01
O      2 -0.3221610000000  0.5579590000000  0.2040760000000 1.0   0.04
O      2  0.0630630000000  0.5930770000000  0.1927880000000 1.0   0.07
O      2 -0.2507930000000  0.3665860000000  0.6259040000000 1.0   0.04
F      3  0.5345480000000 -0.0382420000000 -0.3834950000000 1.0   0.10
F      3 -0.5345480000000  0.3834950000000  0.0382420000000 1.0   0.10
S      4  0.1378850000000 -0.3934730000000 -0.4080140000000 1.0   0.01
S      4 -0.1378850000000  0.4080140000000  0.3934730000000 1.0   0.01
Fe     5  0.3873330000000  0.3750930000000 -0.6576960000000 1.0   3.75
Fe     5 -0.3873330000000  0.6576960000000 -0.3750930000000 1.0   3.75
END
