TITL 2LiFeSO4F-200819-003854-99598a 0.0087 272.780692 -7.56055801E+003 5.97764 6.26227 16 (P2221) n - 1
REM
REM Run started: Wed, 19 Aug 2020 01:06:52 +0100 in /lustre/scratch/uccabz1/launch_tmp/launcher_2020-08-18-23-38-45-886380
REM CASTEP 20.1 from code version af48c487+ pr-geom-scf-spinfix Tue Jun 2 15:39:59 2020 +0100
REM Functional Perdew Burke Ernzerhof Relativity Koelling-Harmon Dispersion off
REM Cut-off 340.0000 eV Grid scale 1.7500 Gmax 16.5316 1/A FBSC none
REM MP grid 3 3 2 Offset 0.000 0.000 0.000 No. kpts 4 Spacing 0.07
REM Total runtime: 2033.59 s
REM Overall efficiency: 72.7143 %
REM
REM 2LiFeSO4F.cell (6abdf011d38848201efe8211ff585b1c)
REM
REM compiler GCC version 4.9.2
REM options -cpp -iprefix /lustre/shared/ucl/apps/gcc/4.9.2/bin/../lib/gcc/x86_64-unknown-linux-gnu/4.9.2/ -mtune=corei7 -march=x86-64 -g -Og
REM COMMAND_LINE
REM seed -168025904 -1028458825 -147354436 -456530152 685776680 1364979306 1770349795 -1505088714 -1184353649 -285037335 -26349469 -257740257
REM
REM S 3|1.8|5|6|7|30:31:32(qc=5)
REM O 2|1.5|12|13|15|20:21(qc=5)
REM Li 1|1.3|8|9|10|10U:20(qc=5)
REM Fe 3|2.2|2.0|1.0|8|9|10|40:41:32(qc=5)
REM F 2|1.6|10|12|13|20:21(qc=5)
REM 
CELL 1.54180    5.24392    6.80692    7.64200   90.00000   90.00000   90.00000
LATT -1
SFAC Li O  F  S  Fe 
Li     1  0.0000000000000  0.0000000000000  0.1973540000000 1.0   0.00
Li     1  0.0000000000000 -0.5000000000000 -0.1973540000000 1.0   0.00
O      2  0.1477980000000 -0.2282920000000  0.3148800000000 1.0   0.27
O      2  0.2689750000000 -0.5414140000000 -0.0133220000000 1.0  -0.00
O      2 -0.1477980000000  0.2717080000000 -0.3148800000000 1.0   0.27
O      2 -0.2689750000000 -0.0414140000000  0.0133220000000 1.0  -0.00
O      2  0.1477980000000 -0.2717080000000 -0.3148800000000 1.0   0.27
O      2  0.2689750000000  0.0414140000000  0.0133220000000 1.0  -0.00
O      2 -0.1477980000000  0.2282920000000  0.3148800000000 1.0   0.27
O      2 -0.2689750000000  0.5414140000000 -0.0133220000000 1.0  -0.00
F      3 -0.5000000000000  0.0000000000000  0.5070530000000 1.0   0.09
F      3  0.5000000000000  0.5000000000000 -0.5070530000000 1.0   0.09
S      4 -0.5000000000000  0.0000000000000 -0.0907960000000 1.0  -0.00
S      4  0.5000000000000 -0.5000000000000  0.0907960000000 1.0  -0.00
Fe     5 -0.3057070000000  0.2500000000000 -0.5000000000000 1.0   2.35
Fe     5  0.3057070000000 -0.2500000000000 -0.5000000000000 1.0   2.35
END
