TITL 2LiFeSO4F-200804-035411-dc92c8 0.0182 199.103125 -7.55821372E+003 9.79117 9.86450 16 (P-1) n - 1
REM
REM Run started: Tue, 04 Aug 2020 05:17:24 +0100 in /lustre/scratch/uccabz1/launch_tmp/launcher_2020-08-04-02-54-09-515092
REM CASTEP 20.1 from code version af48c487+ pr-geom-scf-spinfix Tue Jun 2 15:39:59 2020 +0100
REM Functional Perdew Burke Ernzerhof Relativity Koelling-Harmon Dispersion off
REM Cut-off 340.0000 eV Grid scale 1.7500 Gmax 16.5316 1/A FBSC none
REM MP grid 4 4 2 Offset 0.000 0.000 0.000 No. kpts 16 Spacing 0.07
REM Total runtime: 5524.54 s
REM Overall efficiency: 78.8571 %
REM
REM 2LiFeSO4F.cell (6abdf011d38848201efe8211ff585b1c)
REM
REM compiler GCC version 4.9.2
REM options -cpp -iprefix /lustre/shared/ucl/apps/gcc/4.9.2/bin/../lib/gcc/x86_64-unknown-linux-gnu/4.9.2/ -mtune=corei7 -march=x86-64 -g -Og
REM COMMAND_LINE
REM seed 1685870801 122776887 28243861 306453500 736555876 728327747 -1553795350 -1776069634 -1897965734 -203633084 -1485644595 1043875044
REM
REM S 3|1.8|5|6|7|30:31:32(qc=5)
REM O 2|1.5|12|13|15|20:21(qc=5)
REM Li 1|1.3|8|9|10|10U:20(qc=5)
REM Fe 3|2.2|2.0|1.0|8|9|10|40:41:32(qc=5)
REM F 2|1.6|10|12|13|20:21(qc=5)
REM 
CELL 1.54180    5.10204    5.34267    8.25428  107.19832   90.70300  110.85876
LATT -1
SFAC Li O  F  S  Fe 
Li     1  0.5000000000000  0.0000000000000 -0.5000000000000 1.0  -0.04
Li     1 -0.5000000000000  0.0000000000000  0.0000000000000 1.0   0.00
O      2  0.1969640000000 -0.2533170000000  0.1432690000000 1.0   0.00
O      2 -0.6885630000000 -0.6041010000000  0.3136080000000 1.0   0.30
O      2 -0.2458150000000 -0.2066150000000  0.4602440000000 1.0   0.22
O      2 -0.3105580000000 -0.7057290000000  0.4135420000000 1.0   0.33
O      2 -0.1969640000000  0.2533170000000 -0.1432690000000 1.0   0.00
O      2  0.6885630000000  0.6041010000000 -0.3136080000000 1.0   0.30
O      2  0.2458150000000  0.2066150000000 -0.4602440000000 1.0   0.22
O      2  0.3105580000000  0.7057290000000 -0.4135420000000 1.0   0.33
F      3  0.2260870000000  0.0539780000000 -0.1144540000000 1.0   0.14
F      3 -0.2260870000000 -0.0539780000000  0.1144540000000 1.0   0.14
S      4 -0.5000000000000  0.5000000000000  0.5000000000000 1.0   0.04
S      4  0.0000000000000 -0.5000000000000  0.0000000000000 1.0   0.00
Fe     5 -0.0474230000000  0.1296590000000  0.3446790000000 1.0   3.91
Fe     5  0.0474230000000 -0.1296590000000 -0.3446790000000 1.0   3.91
END
