TITL 2LiFeSO4F-200804-051715-2375ff -0.0059 209.872058 -7.56494815E+003 8.00000 8.13199 16 (P21) n - 1
REM
REM Run started: Tue, 04 Aug 2020 06:33:23 +0100 in /lustre/scratch/uccabz1/launch_tmp/launcher_2020-08-04-04-17-08-140275
REM CASTEP 20.1 from code version af48c487+ pr-geom-scf-spinfix Tue Jun 2 15:39:59 2020 +0100
REM Functional Perdew Burke Ernzerhof Relativity Koelling-Harmon Dispersion off
REM Cut-off 340.0000 eV Grid scale 1.7500 Gmax 16.5316 1/A FBSC none
REM MP grid 4 4 2 Offset 0.000 0.000 0.000 No. kpts 8 Spacing 0.07
REM Total runtime: 5291.25 s
REM Overall efficiency: 94.375 %
REM
REM 2LiFeSO4F.cell (6abdf011d38848201efe8211ff585b1c)
REM
REM compiler GCC version 4.9.2
REM options -cpp -iprefix /lustre/shared/ucl/apps/gcc/4.9.2/bin/../lib/gcc/x86_64-unknown-linux-gnu/4.9.2/ -mtune=corei7 -march=x86-64 -g -Og
REM COMMAND_LINE
REM seed 2074233012 -1386236034 -1042333954 655601748 1620469387 818549056 -646111614 -1891959118 1945089011 63502395 -844258712 1872236472
REM
REM S 3|1.8|5|6|7|30:31:32(qc=5)
REM O 2|1.5|12|13|15|20:21(qc=5)
REM Li 1|1.3|8|9|10|10U:20(qc=5)
REM Fe 3|2.2|2.0|1.0|8|9|10|40:41:32(qc=5)
REM F 2|1.6|10|12|13|20:21(qc=5)
REM 
CELL 1.54180    3.96568    5.26148   11.14607   90.00000   90.00000  115.52251
LATT -1
SFAC Li O  F  S  Fe 
Li     1  0.0801240000000 -0.4429110000000  0.4568310000000 1.0  -0.03
Li     1 -0.0801240000000  0.4429110000000 -0.0431690000000 1.0  -0.03
O      2  0.5757380000000  0.2946810000000 -0.1848590000000 1.0   0.06
O      2 -0.0353170000000 -0.0223740000000 -0.2573580000000 1.0   0.08
O      2  0.0680040000000  0.1429650000000 -0.0417680000000 1.0   0.02
O      2  0.2747500000000 -0.2058710000000 -0.1139050000000 1.0   0.01
O      2 -0.5757380000000 -0.2946810000000  0.3151410000000 1.0   0.06
O      2  0.0353170000000  0.0223740000000  0.2426420000000 1.0   0.08
O      2 -0.0680040000000 -0.1429650000000  0.4582320000000 1.0   0.02
O      2 -0.2747500000000  0.2058710000000  0.3860950000000 1.0   0.01
F      3  0.1727240000000  0.5557040000000 -0.3754890000000 1.0   0.09
F      3 -0.1727240000000 -0.5557040000000  0.1245110000000 1.0   0.09
S      4  0.2124290000000  0.0443590000000 -0.1466950000000 1.0   0.01
S      4 -0.2124290000000 -0.0443590000000  0.3533050000000 1.0   0.01
Fe     5 -0.3282710000000 -0.4105950000000 -0.3117690000000 1.0   3.76
Fe     5  0.3282710000000  0.4105950000000  0.1882310000000 1.0   3.76
END
