TITL 2LiFeSO4F-200804-045028-c809b8 0.0121 270.840089 -7.56440023E+003 7.99991 8.19071 16 (C2) n - 1
REM
REM Run started: Tue, 04 Aug 2020 09:08:05 +0100 in /lustre/scratch/uccabz1/launch_tmp/launcher_2020-08-04-03-50-25-758448
REM CASTEP 20.1 from code version af48c487+ pr-geom-scf-spinfix Tue Jun 2 15:39:59 2020 +0100
REM Functional Perdew Burke Ernzerhof Relativity Koelling-Harmon Dispersion off
REM Cut-off 340.0000 eV Grid scale 1.7500 Gmax 16.5316 1/A FBSC none
REM MP grid 3 3 3 Offset 0.000 0.000 0.000 No. kpts 10 Spacing 0.07
REM Total runtime: 15518.3 s
REM Overall efficiency: 94.5385 %
REM
REM 2LiFeSO4F.cell (6abdf011d38848201efe8211ff585b1c)
REM
REM compiler GCC version 4.9.2
REM options -cpp -iprefix /lustre/shared/ucl/apps/gcc/4.9.2/bin/../lib/gcc/x86_64-unknown-linux-gnu/4.9.2/ -mtune=corei7 -march=x86-64 -g -Og
REM COMMAND_LINE
REM seed 903193391 -59425782 800799637 179594414 795880939 808371004 -335143540 517391534 1420850498 1601694732 297099935 798080130
REM
REM S 3|1.8|5|6|7|30:31:32(qc=5)
REM O 2|1.5|12|13|15|20:21(qc=5)
REM Li 1|1.3|8|9|10|10U:20(qc=5)
REM Fe 3|2.2|2.0|1.0|8|9|10|40:41:32(qc=5)
REM F 2|1.6|10|12|13|20:21(qc=5)
REM 
CELL 1.54180    8.76345    5.78333    7.56519  114.00938  125.39404   89.99999
LATT -1
SFAC Li O  F  S  Fe 
Li     1  0.1336260000000 -0.0000000000000  0.0000000000000 1.0  -0.02
Li     1 -0.1343040000000  0.5000000000000  0.0000000000000 1.0  -0.02
O      2 -0.3352930000000 -0.5569500000000  0.2736500000000 1.0   0.07
O      2 -0.1014090000000 -0.1524270000000  0.6820170000000 1.0   0.01
O      2 -0.2986270000000 -0.1279370000000  0.2941580000000 1.0   0.08
O      2 -0.0369030000000 -0.3264730000000  0.3766110000000 1.0   0.06
O      2  0.3910570000000  0.5569500000000 -0.2736500000000 1.0   0.07
O      2  0.2165740000000  0.1524270000000 -0.6820170000000 1.0   0.01
O      2  0.4072150000000  0.1279370000000 -0.2941580000000 1.0   0.08
O      2  0.5864860000000  0.3264730000000 -0.3766110000000 1.0   0.06
F      3  0.0567320000000  0.5000000000000  0.0000000000000 1.0   0.01
F      3 -0.6565600000000 -0.0000000000000  0.0000000000000 1.0   0.11
S      4 -0.1910390000000 -0.2861740000000  0.4165600000000 1.0   0.02
S      4  0.3924020000000  0.2861740000000 -0.4165600000000 1.0   0.02
Fe     5 -0.3872590000000  0.1835650000000  0.3529740000000 1.0   3.73
Fe     5  0.2597670000000 -0.1835650000000 -0.3529740000000 1.0   3.73
END
