TITL 4LiFeSO4F-200818-171858-3bd1d1 -0.0187 410.940270 -1.51310959E+004 16.0000 16.2603 32 (P21) n - 1
REM
REM Run started: Wed, 19 Aug 2020 00:16:57 +0100 in /lustre/scratch/uccabz1/launch_tmp/launcher_2020-08-18-16-18-44-569241
REM CASTEP 20.1 from code version af48c487+ pr-geom-scf-spinfix Tue Jun 2 15:39:59 2020 +0100
REM Functional Perdew Burke Ernzerhof Relativity Koelling-Harmon Dispersion off
REM Cut-off 340.0000 eV Grid scale 1.7500 Gmax 16.5316 1/A FBSC none
REM MP grid 2 3 2 Offset 0.000 0.000 0.000 No. kpts 3 Spacing 0.07
REM Total runtime: 25154.4 s
REM Overall efficiency: 71.0833 %
REM
REM 4LiFeSO4F.cell (79c870615ff1d88195b1fe3fe805288c)
REM
REM compiler GCC version 4.9.2
REM options -cpp -iprefix /lustre/shared/ucl/apps/gcc/4.9.2/bin/../lib/gcc/x86_64-unknown-linux-gnu/4.9.2/ -mtune=corei7 -march=x86-64 -g -Og
REM COMMAND_LINE
REM seed 1327637746 815471354 -982932402 -1416472816 -1405808190 -340766626 -1203487800 309484621 1319640663 72214318 -1541132451 663785977
REM
REM S 3|1.8|5|6|7|30:31:32(qc=5)
REM O 2|1.5|12|13|15|20:21(qc=5)
REM Li 1|1.3|8|9|10|10U:20(qc=5)
REM Fe 3|2.2|2.0|1.0|8|9|10|40:41:32(qc=5)
REM F 2|1.6|10|12|13|20:21(qc=5)
REM 
CELL 1.54180    7.58955    7.36143    9.13866  126.40365   90.00000   90.00000
LATT -1
SFAC Li O  F  S  Fe 
Li     1 -0.4363580000000 -0.2268090000000 -0.4219630000000 1.0  -0.03
Li     1  0.0636420000000  0.2268090000000  0.4219630000000 1.0  -0.03
Li     1 -0.3883080000000 -0.2532450000000  0.2179830000000 1.0  -0.02
Li     1  0.1116920000000  0.2532450000000 -0.2179830000000 1.0  -0.02
O      2  0.3566170000000 -0.2672470000000  0.2383990000000 1.0   0.01
O      2  0.2142360000000 -0.4091820000000 -0.0531470000000 1.0   0.05
O      2  0.1975710000000 -0.0019160000000  0.1987680000000 1.0   0.05
O      2  0.0320850000000 -0.2648670000000  0.2180900000000 1.0   0.07
O      2 -0.1433830000000  0.2672470000000 -0.2383990000000 1.0   0.01
O      2 -0.2857640000000  0.4091820000000  0.0531470000000 1.0   0.05
O      2 -0.3024290000000  0.0019160000000 -0.1987680000000 1.0   0.05
O      2 -0.4679150000000  0.2648670000000 -0.2180900000000 1.0   0.07
O      2  0.0250470000000 -0.3050920000000 -0.2788490000000 1.0   0.07
O      2  0.3409970000000 -0.2834920000000 -0.3168830000000 1.0   0.04
O      2  0.1380730000000 -0.0719310000000 -0.3727090000000 1.0   0.02
O      2  0.1419520000000 -0.4859850000000 -0.5838600000000 1.0   0.06
O      2 -0.4749530000000  0.3050920000000  0.2788490000000 1.0   0.07
O      2 -0.1590030000000  0.2834920000000  0.3168830000000 1.0   0.04
O      2 -0.3619270000000  0.0719310000000  0.3727090000000 1.0   0.02
O      2 -0.3580480000000  0.4859850000000  0.5838600000000 1.0   0.06
F      3  0.2177640000000 -0.7161360000000 -0.3993590000000 1.0   0.07
F      3 -0.2822360000000  0.7161360000000  0.3993590000000 1.0   0.07
F      3 -0.3873810000000 -0.2591320000000 -0.0391820000000 1.0   0.10
F      3  0.1126190000000  0.2591320000000  0.0391820000000 1.0   0.10
S      4  0.2056670000000 -0.2384170000000  0.1516700000000 1.0   0.02
S      4 -0.2943330000000  0.2384170000000 -0.1516700000000 1.0   0.02
S      4  0.1612230000000 -0.2772090000000 -0.3849290000000 1.0   0.01
S      4 -0.3387770000000  0.2772090000000  0.3849290000000 1.0   0.01
Fe     5  0.2935200000000  0.2478020000000  0.1794760000000 1.0   3.67
Fe     5 -0.2064800000000 -0.2478020000000 -0.1794760000000 1.0   3.67
Fe     5 -0.0809890000000  0.5057520000000  0.2435130000000 1.0   3.79
Fe     5  0.4190110000000 -0.5057520000000 -0.2435130000000 1.0   3.79
END
