TITL 4LiFeSO4F-200818-031300-8a3a4b -0.0171 421.373156 -1.51314782E+004 15.9987 16.3069 32 (Cc) n - 1
REM
REM Run started: Tue, 18 Aug 2020 09:41:08 +0100 in /lustre/scratch/uccabz1/launch_tmp/launcher_2020-08-18-02-12-50-705474
REM CASTEP 20.1 from code version af48c487+ pr-geom-scf-spinfix Tue Jun 2 15:39:59 2020 +0100
REM Functional Perdew Burke Ernzerhof Relativity Koelling-Harmon Dispersion off
REM Cut-off 340.0000 eV Grid scale 1.7500 Gmax 16.5316 1/A FBSC none
REM MP grid 3 3 2 Offset 0.000 0.000 0.000 No. kpts 6 Spacing 0.07
REM Total runtime: 23443.5 s
REM Overall efficiency: 71.1111 %
REM
REM 4LiFeSO4F.cell (79c870615ff1d88195b1fe3fe805288c)
REM
REM compiler GCC version 4.9.2
REM options -cpp -iprefix /lustre/shared/ucl/apps/gcc/4.9.2/bin/../lib/gcc/x86_64-unknown-linux-gnu/4.9.2/ -mtune=corei7 -march=x86-64 -g -Og
REM COMMAND_LINE
REM seed -402671101 -1292850734 77117181 -593426734 -2116773810 578261789 584888252 -1040613385 -2026664378 693189721 -993630157 1159612041
REM
REM S 3|1.8|5|6|7|30:31:32(qc=5)
REM O 2|1.5|12|13|15|20:21(qc=5)
REM Li 1|1.3|8|9|10|10U:20(qc=5)
REM Fe 3|2.2|2.0|1.0|8|9|10|40:41:32(qc=5)
REM F 2|1.6|10|12|13|20:21(qc=5)
REM 
CELL 1.54180    6.00001    6.00001   11.98874   97.18933   97.18933   81.88915
LATT -1
SFAC Li O  F  S  Fe 
Li     1 -0.2642870000000 -0.5496920000000 -0.4765580000000 1.0  -0.02
Li     1 -0.5496920000000 -0.2642870000000  0.0234420000000 1.0  -0.02
Li     1 -0.4278200000000  0.1122930000000  0.3371290000000 1.0  -0.03
Li     1  0.1122930000000 -0.4278200000000 -0.1628710000000 1.0  -0.03
O      2  0.6115170000000  0.2107480000000 -0.0063920000000 1.0   0.07
O      2  0.2711950000000  0.4746960000000  0.0245570000000 1.0   0.01
O      2  0.4580380000000  0.2603450000000  0.1796380000000 1.0   0.04
O      2  0.2642890000000  0.0607340000000  0.0123830000000 1.0   0.06
O      2  0.2107480000000  0.6115170000000 -0.5063920000000 1.0   0.07
O      2  0.4746960000000  0.2711950000000 -0.4754430000000 1.0   0.01
O      2  0.2603450000000  0.4580380000000 -0.3203620000000 1.0   0.04
O      2  0.0607340000000  0.2642890000000 -0.4876170000000 1.0   0.06
O      2 -0.3381280000000 -0.3032580000000  0.1695150000000 1.0   0.05
O      2 -0.1428870000000 -0.0780010000000  0.3256430000000 1.0   0.05
O      2 -0.0601660000000 -0.0728440000000  0.1269990000000 1.0   0.03
O      2  0.0739600000000 -0.4069790000000  0.2297540000000 1.0   0.05
O      2 -0.3032580000000 -0.3381280000000 -0.3304850000000 1.0   0.05
O      2 -0.0780010000000 -0.1428870000000 -0.1743570000000 1.0   0.05
O      2 -0.0728440000000 -0.0601660000000 -0.3730010000000 1.0   0.03
O      2 -0.4069790000000  0.0739600000000 -0.2702460000000 1.0   0.05
F      3 -0.3417250000000  0.4385550000000  0.3709140000000 1.0   0.09
F      3  0.4385550000000 -0.3417250000000 -0.1290860000000 1.0   0.09
F      3 -0.0879010000000  0.3522910000000 -0.1458180000000 1.0   0.09
F      3  0.3522910000000 -0.0879010000000  0.3541820000000 1.0   0.09
S      4  0.4010550000000  0.2568530000000  0.0539100000000 1.0   0.02
S      4  0.2568530000000  0.4010550000000 -0.4460900000000 1.0   0.02
S      4 -0.1112800000000 -0.2153770000000  0.2108580000000 1.0   0.01
S      4 -0.2153770000000 -0.1112800000000 -0.2891420000000 1.0   0.01
Fe     5  0.4253400000000 -0.4026890000000  0.2724310000000 1.0   3.76
Fe     5 -0.4026890000000  0.4253400000000 -0.2275690000000 1.0   3.76
Fe     5 -0.0747300000000  0.0927440000000 -0.0281130000000 1.0   3.71
Fe     5  0.0927440000000 -0.0747300000000  0.4718870000000 1.0   3.71
END
