TITL 4LiFeSO4F-200818-102357-948f72 -0.2055 429.690785 -1.51269794E+004 11.9221 12.2919 32 (P2) n - 1
REM
REM Run started: Tue, 18 Aug 2020 19:28:07 +0100 in /lustre/scratch/uccabz1/launch_tmp/launcher_2020-08-18-09-23-54-113037
REM CASTEP 20.1 from code version af48c487+ pr-geom-scf-spinfix Tue Jun 2 15:39:59 2020 +0100
REM Functional Perdew Burke Ernzerhof Relativity Koelling-Harmon Dispersion off
REM Cut-off 340.0000 eV Grid scale 1.7500 Gmax 16.5316 1/A FBSC none
REM MP grid 3 2 2 Offset 0.000 0.000 0.000 No. kpts 4 Spacing 0.07
REM Total runtime: 36139.2 s
REM Overall efficiency: 75 %
REM
REM 4LiFeSO4F.cell (79c870615ff1d88195b1fe3fe805288c)
REM
REM compiler GCC version 4.9.2
REM options -cpp -iprefix /lustre/shared/ucl/apps/gcc/4.9.2/bin/../lib/gcc/x86_64-unknown-linux-gnu/4.9.2/ -mtune=corei7 -march=x86-64 -g -Og
REM COMMAND_LINE
REM seed 1502657462 -695396130 -1068501612 -686137363 -427004432 1297258457 -270227070 -20530841 -1860323528 2132242413 1788781839 969555979
REM
REM S 3|1.8|5|6|7|30:31:32(qc=5)
REM O 2|1.5|12|13|15|20:21(qc=5)
REM Li 1|1.3|8|9|10|10U:20(qc=5)
REM Fe 3|2.2|2.0|1.0|8|9|10|40:41:32(qc=5)
REM F 2|1.6|10|12|13|20:21(qc=5)
REM 
CELL 1.54180    6.14704    9.16784    7.90365  105.26734   90.00000   90.00000
LATT -1
SFAC Li O  F  S  Fe 
Li     1  0.2372790000000  0.0732090000000 -0.2818450000000 1.0   0.01
Li     1  0.2372790000000 -0.0732090000000  0.2818450000000 1.0   0.01
Li     1 -0.2961680000000  0.0000000000000  0.5000000000000 1.0  -0.01
Li     1 -0.3509650000000  0.5000000000000  0.5000000000000 1.0  -0.00
O      2  0.0977080000000 -0.3415670000000  0.6366600000000 1.0   0.01
O      2 -0.1690320000000 -0.3626650000000  0.4047030000000 1.0   0.01
O      2  0.1660150000000 -0.2125690000000  0.4048920000000 1.0   0.01
O      2 -0.1162650000000 -0.1134280000000  0.6197430000000 1.0   0.01
O      2  0.0977080000000  0.3415670000000 -0.6366600000000 1.0   0.01
O      2 -0.1690320000000  0.3626650000000 -0.4047030000000 1.0   0.01
O      2  0.1660150000000  0.2125690000000 -0.4048920000000 1.0   0.01
O      2 -0.1162650000000  0.1134280000000 -0.6197430000000 1.0   0.01
O      2 -0.6057260000000 -0.3081140000000  0.0107000000000 1.0   0.24
O      2  0.0047050000000  0.1108750000000 -0.0704940000000 1.0  -0.01
O      2 -0.4430730000000 -0.2788600000000 -0.3040730000000 1.0   0.66
O      2  0.2746030000000 -0.0869110000000 -0.1509500000000 1.0  -0.01
O      2 -0.6057260000000  0.3081140000000 -0.0107000000000 1.0   0.24
O      2  0.0047050000000 -0.1108750000000  0.0704940000000 1.0  -0.01
O      2 -0.4430730000000  0.2788600000000  0.3040730000000 1.0   0.66
O      2  0.2746030000000  0.0869110000000  0.1509500000000 1.0  -0.01
F      3 -0.5941240000000 -0.5226020000000 -0.2877870000000 1.0   0.09
F      3 -0.5941240000000  0.5226020000000  0.2877870000000 1.0   0.09
F      3  0.5523280000000  0.1357580000000 -0.3170300000000 1.0   0.11
F      3  0.5523280000000 -0.1357580000000  0.3170300000000 1.0   0.11
S      4 -0.0083150000000 -0.2519720000000  0.5138560000000 1.0   0.01
S      4 -0.0083150000000  0.2519720000000 -0.5138560000000 1.0   0.01
S      4  0.1213820000000  0.0000000000000  0.0000000000000 1.0   0.00
S      4 -0.2102990000000 -0.5000000000000  0.0000000000000 1.0   0.31
Fe     5 -0.4328560000000  0.3398870000000 -0.1762130000000 1.0   3.44
Fe     5 -0.4328560000000 -0.3398870000000  0.1762130000000 1.0   3.44
Fe     5  0.3351440000000 -0.3033290000000 -0.2075480000000 1.0   1.23
Fe     5  0.3351440000000  0.3033290000000  0.2075480000000 1.0   1.23
END
