TITL 4LiFeSO4F-200818-052641-ce4f09 0.0029 511.585641 -1.51310462E+004 16.0000 16.3570 32 (P2) n - 1
REM
REM Run started: Tue, 18 Aug 2020 10:27:41 +0100 in /lustre/scratch/uccabz1/launch_tmp/launcher_2020-08-18-04-26-37-706780
REM CASTEP 20.1 from code version af48c487+ pr-geom-scf-spinfix Tue Jun 2 15:39:59 2020 +0100
REM Functional Perdew Burke Ernzerhof Relativity Koelling-Harmon Dispersion off
REM Cut-off 340.0000 eV Grid scale 1.7500 Gmax 16.5316 1/A FBSC none
REM MP grid 2 2 3 Offset 0.000 0.000 0.000 No. kpts 3 Spacing 0.07
REM Total runtime: 18235.3 s
REM Overall efficiency: 72.6 %
REM
REM 4LiFeSO4F.cell (79c870615ff1d88195b1fe3fe805288c)
REM
REM compiler GCC version 4.9.2
REM options -cpp -iprefix /lustre/shared/ucl/apps/gcc/4.9.2/bin/../lib/gcc/x86_64-unknown-linux-gnu/4.9.2/ -mtune=corei7 -march=x86-64 -g -Og
REM COMMAND_LINE
REM seed 460185993 1062017792 -1997684563 -668528448 1164699599 -511710944 1699335748 1833263647 364266900 -1056542387 1825665568 1380705036
REM
REM S 3|1.8|5|6|7|30:31:32(qc=5)
REM O 2|1.5|12|13|15|20:21(qc=5)
REM Li 1|1.3|8|9|10|10U:20(qc=5)
REM Fe 3|2.2|2.0|1.0|8|9|10|40:41:32(qc=5)
REM F 2|1.6|10|12|13|20:21(qc=5)
REM 
CELL 1.54180    7.86426   10.06999    8.49251  130.47688   90.00000   90.00000
LATT -1
SFAC Li O  F  S  Fe 
Li     1 -0.3792490000000 -0.1271800000000 -0.2186850000000 1.0  -0.02
Li     1 -0.3792490000000  0.1271800000000  0.2186850000000 1.0  -0.02
Li     1 -0.1235070000000  0.2635320000000 -0.3787830000000 1.0  -0.02
Li     1 -0.1235070000000 -0.2635320000000  0.3787830000000 1.0  -0.02
O      2 -0.3524190000000 -0.1273900000000  0.0269650000000 1.0   0.01
O      2 -0.2740680000000 -0.4293630000000 -0.1370790000000 1.0   0.07
O      2 -0.2818520000000 -0.2055010000000  0.2441930000000 1.0   0.02
O      2 -0.0611650000000 -0.1983640000000  0.0505500000000 1.0   0.08
O      2 -0.3524190000000  0.1273900000000 -0.0269650000000 1.0   0.01
O      2 -0.2740680000000  0.4293630000000  0.1370790000000 1.0   0.07
O      2 -0.2818520000000  0.2055010000000 -0.2441930000000 1.0   0.02
O      2 -0.0611650000000  0.1983640000000 -0.0505500000000 1.0   0.08
O      2  0.3937580000000 -0.2546980000000 -0.4293810000000 1.0   0.06
O      2  0.1272220000000 -0.2183540000000 -0.2565460000000 1.0   0.07
O      2  0.1170060000000 -0.2418280000000 -0.5614520000000 1.0   0.02
O      2  0.2472490000000  0.0196090000000 -0.2408860000000 1.0   0.08
O      2  0.3937580000000  0.2546980000000  0.4293810000000 1.0   0.06
O      2  0.1272220000000  0.2183540000000  0.2565460000000 1.0   0.07
O      2  0.1170060000000  0.2418280000000  0.5614520000000 1.0   0.02
O      2  0.2472490000000 -0.0196090000000  0.2408860000000 1.0   0.08
F      3 -0.2791580000000  0.2737190000000  0.4711410000000 1.0   0.07
F      3 -0.2791580000000 -0.2737190000000 -0.4711410000000 1.0   0.07
F      3  0.3492470000000  0.5937770000000 -0.1448870000000 1.0   0.14
F      3  0.3492470000000 -0.5937770000000  0.1448870000000 1.0   0.14
S      4 -0.2460010000000 -0.2380230000000  0.0502170000000 1.0   0.01
S      4 -0.2460010000000  0.2380230000000 -0.0502170000000 1.0   0.01
S      4  0.2162410000000 -0.1740740000000 -0.3745890000000 1.0   0.02
S      4  0.2162410000000  0.1740740000000  0.3745890000000 1.0   0.02
Fe     5  0.1726610000000  0.2323610000000  0.0358320000000 1.0   3.73
Fe     5  0.1726610000000 -0.2323610000000 -0.0358320000000 1.0   3.73
Fe     5 -0.4659530000000 -0.4268820000000  0.3228350000000 1.0   3.66
Fe     5 -0.4659530000000  0.4268820000000 -0.3228350000000 1.0   3.66
END
