TITL 4LiFeSO4F-200804-055703-9d098b -0.0085 454.669788 -1.51303002E+004 15.9999 16.3796 32 (P2) n - 1
REM
REM Run started: Tue, 04 Aug 2020 09:51:40 +0100 in /lustre/scratch/uccabz1/launch_tmp/launcher_2020-08-04-04-56-52-232335
REM CASTEP 20.1 from code version af48c487+ pr-geom-scf-spinfix Tue Jun 2 15:39:59 2020 +0100
REM Functional Perdew Burke Ernzerhof Relativity Koelling-Harmon Dispersion off
REM Cut-off 340.0000 eV Grid scale 1.7500 Gmax 16.5316 1/A FBSC none
REM MP grid 2 2 2 Offset 0.000 0.000 0.000 No. kpts 2 Spacing 0.07
REM Total runtime: 14127.3 s
REM Overall efficiency: 73.3333 %
REM
REM 4LiFeSO4F.cell (79c870615ff1d88195b1fe3fe805288c)
REM
REM compiler GCC version 4.9.2
REM options -cpp -iprefix /lustre/shared/ucl/apps/gcc/4.9.2/bin/../lib/gcc/x86_64-unknown-linux-gnu/4.9.2/ -mtune=corei7 -march=x86-64 -g -Og
REM COMMAND_LINE
REM seed -2043095475 -1232621248 -754878967 1944004761 896526114 -1323790449 17353353 791347427 650183501 817525790 -1488868852 -1684104389
REM
REM S 3|1.8|5|6|7|30:31:32(qc=5)
REM O 2|1.5|12|13|15|20:21(qc=5)
REM Li 1|1.3|8|9|10|10U:20(qc=5)
REM Fe 3|2.2|2.0|1.0|8|9|10|40:41:32(qc=5)
REM F 2|1.6|10|12|13|20:21(qc=5)
REM 
CELL 1.54180    7.59498    7.52082    7.98109   85.81762   90.00000   90.00000
LATT -1
SFAC Li O  F  S  Fe 
Li     1 -0.0871130000000  0.3340160000000  0.2015650000000 1.0  -0.01
Li     1 -0.0871130000000 -0.3340160000000 -0.2015650000000 1.0  -0.01
Li     1  0.3154120000000 -0.2345080000000  0.1016630000000 1.0  -0.01
Li     1  0.3154120000000  0.2345080000000 -0.1016630000000 1.0  -0.01
O      2  0.1721520000000  0.2544960000000  0.1075840000000 1.0   0.01
O      2  0.0901740000000  0.0199340000000  0.3214080000000 1.0   0.07
O      2  0.3263810000000  0.2292120000000  0.3802670000000 1.0   0.08
O      2  0.3749300000000  0.0019440000000  0.1755970000000 1.0   0.01
O      2  0.1721520000000 -0.2544960000000 -0.1075840000000 1.0   0.01
O      2  0.0901740000000 -0.0199340000000 -0.3214080000000 1.0   0.07
O      2  0.3263810000000 -0.2292120000000 -0.3802670000000 1.0   0.08
O      2  0.3749300000000 -0.0019440000000 -0.1755970000000 1.0   0.01
O      2 -0.4557520000000 -0.3678770000000  0.1969470000000 1.0   0.05
O      2 -0.1282560000000 -0.4129630000000  0.1967190000000 1.0   0.08
O      2 -0.2384900000000 -0.1211820000000  0.2153960000000 1.0   0.10
O      2 -0.2854230000000 -0.2710430000000 -0.0514190000000 1.0   0.02
O      2 -0.4557520000000  0.3678770000000 -0.1969470000000 1.0   0.05
O      2 -0.1282560000000  0.4129630000000 -0.1967190000000 1.0   0.08
O      2 -0.2384900000000  0.1211820000000 -0.2153960000000 1.0   0.10
O      2 -0.2854230000000  0.2710430000000  0.0514190000000 1.0   0.02
F      3 -0.1001860000000 -0.3022600000000 -0.4346600000000 1.0   0.17
F      3 -0.1001860000000  0.3022600000000  0.4346600000000 1.0   0.17
F      3  0.2078830000000 -0.3544480000000  0.2923000000000 1.0   0.11
F      3  0.2078830000000  0.3544480000000 -0.2923000000000 1.0   0.11
S      4  0.2437750000000  0.1221300000000  0.2428970000000 1.0   0.01
S      4  0.2437750000000 -0.1221300000000 -0.2428970000000 1.0   0.01
S      4 -0.2786310000000 -0.2907220000000  0.1331230000000 1.0   0.01
S      4 -0.2786310000000  0.2907220000000 -0.1331230000000 1.0   0.01
Fe     5 -0.0211810000000  0.2235980000000 -0.3543750000000 1.0   3.90
Fe     5 -0.0211810000000 -0.2235980000000  0.3543750000000 1.0   3.90
Fe     5  0.4044240000000 -0.4730740000000 -0.3560910000000 1.0   3.41
Fe     5  0.4044240000000  0.4730740000000  0.3560910000000 1.0   3.41
END
