TITL 4LiFeSO4F-200804-082600-4c0be9 0.0700 460.598126 -1.51293197E+004 16.0000 16.2165 32 (C2/c) n - 1
REM
REM Run started: Tue, 04 Aug 2020 11:29:29 +0100 in /lustre/scratch/uccabz1/launch_tmp/launcher_2020-08-04-07-25-45-637432
REM CASTEP 20.1 from code version af48c487+ pr-geom-scf-spinfix Tue Jun 2 15:39:59 2020 +0100
REM Functional Perdew Burke Ernzerhof Relativity Koelling-Harmon Dispersion off
REM Cut-off 340.0000 eV Grid scale 1.7500 Gmax 16.5316 1/A FBSC none
REM MP grid 3 2 2 Offset 0.000 0.000 0.000 No. kpts 5 Spacing 0.07
REM Total runtime: 11105.3 s
REM Overall efficiency: 75.875 %
REM
REM 4LiFeSO4F.cell (79c870615ff1d88195b1fe3fe805288c)
REM
REM compiler GCC version 4.9.2
REM options -cpp -iprefix /lustre/shared/ucl/apps/gcc/4.9.2/bin/../lib/gcc/x86_64-unknown-linux-gnu/4.9.2/ -mtune=corei7 -march=x86-64 -g -Og
REM COMMAND_LINE
REM seed 515759463 1953901220 1807477332 -393236882 -545240548 -1146961272 13182379 928847478 378357494 -1479233370 -1768055806 1674138779
REM
REM S 3|1.8|5|6|7|30:31:32(qc=5)
REM O 2|1.5|12|13|15|20:21(qc=5)
REM Li 1|1.3|8|9|10|10U:20(qc=5)
REM Fe 3|2.2|2.0|1.0|8|9|10|40:41:32(qc=5)
REM F 2|1.6|10|12|13|20:21(qc=5)
REM 
CELL 1.54180    5.86866    8.86414    8.86414   90.58925   91.86815   91.86815
LATT -1
SFAC Li O  F  S  Fe 
Li     1  0.4185520000000 -0.2628810000000  0.4692720000000 1.0  -0.01
Li     1  0.0814480000000 -0.4692720000000  0.2628810000000 1.0  -0.01
Li     1 -0.4185520000000  0.2628810000000 -0.4692720000000 1.0  -0.01
Li     1 -0.0814480000000  0.4692720000000 -0.2628810000000 1.0  -0.01
O      2 -0.2974670000000 -0.1553020000000 -0.5099790000000 1.0   0.01
O      2 -0.1018790000000 -0.3768660000000 -0.4069540000000 1.0   0.01
O      2  0.0465230000000 -0.1220500000000 -0.3425850000000 1.0   0.06
O      2  0.0793950000000 -0.2200530000000 -0.6001010000000 1.0   0.06
O      2 -0.2025330000000  0.5099790000000  0.1553020000000 1.0   0.01
O      2 -0.3981210000000  0.4069540000000  0.3768660000000 1.0   0.01
O      2 -0.5465230000000  0.3425850000000  0.1220500000000 1.0   0.06
O      2 -0.5793950000000  0.6001010000000  0.2200530000000 1.0   0.06
O      2  0.2974670000000  0.1553020000000  0.5099790000000 1.0   0.01
O      2  0.1018790000000  0.3768660000000  0.4069540000000 1.0   0.01
O      2 -0.0465230000000  0.1220500000000  0.3425850000000 1.0   0.06
O      2 -0.0793950000000  0.2200530000000  0.6001010000000 1.0   0.06
O      2  0.2025330000000 -0.5099790000000 -0.1553020000000 1.0   0.01
O      2  0.3981210000000 -0.4069540000000 -0.3768660000000 1.0   0.01
O      2  0.5465230000000 -0.3425850000000 -0.1220500000000 1.0   0.06
O      2  0.5793950000000 -0.6001010000000 -0.2200530000000 1.0   0.06
F      3  0.0602080000000  0.1737460000000 -0.0549900000000 1.0   0.15
F      3 -0.5602080000000  0.0549900000000 -0.1737460000000 1.0   0.15
F      3 -0.0602080000000 -0.1737460000000  0.0549900000000 1.0   0.15
F      3  0.5602080000000 -0.0549900000000  0.1737460000000 1.0   0.15
S      4 -0.0782150000000 -0.2215730000000 -0.4607650000000 1.0   0.01
S      4 -0.4217850000000  0.4607650000000  0.2215730000000 1.0   0.01
S      4  0.0782150000000  0.2215730000000  0.4607650000000 1.0   0.01
S      4  0.4217850000000 -0.4607650000000 -0.2215730000000 1.0   0.01
Fe     5  0.4741180000000  0.2347710000000 -0.0669050000000 1.0   3.72
Fe     5  0.0258820000000  0.0669050000000 -0.2347710000000 1.0   3.72
Fe     5 -0.4741180000000 -0.2347710000000  0.0669050000000 1.0   3.72
Fe     5 -0.0258820000000 -0.0669050000000  0.2347710000000 1.0   3.72
END
