TITL 4LiFeSO4F-200818-091146-870f2a 0.0086 421.499972 -1.51309942E+004 16.0000 16.1651 32 (P21) n - 1
REM
REM Run started: Tue, 18 Aug 2020 17:45:02 +0100 in /lustre/scratch/uccabz1/launch_tmp/launcher_2020-08-18-08-11-44-688280
REM CASTEP 20.1 from code version af48c487+ pr-geom-scf-spinfix Tue Jun 2 15:39:59 2020 +0100
REM Functional Perdew Burke Ernzerhof Relativity Koelling-Harmon Dispersion off
REM Cut-off 340.0000 eV Grid scale 1.7500 Gmax 16.5316 1/A FBSC none
REM MP grid 3 2 2 Offset 0.000 0.000 0.000 No. kpts 3 Spacing 0.07
REM Total runtime: 33751.6 s
REM Overall efficiency: 75.3333 %
REM
REM 4LiFeSO4F.cell (79c870615ff1d88195b1fe3fe805288c)
REM
REM compiler GCC version 4.9.2
REM options -cpp -iprefix /lustre/shared/ucl/apps/gcc/4.9.2/bin/../lib/gcc/x86_64-unknown-linux-gnu/4.9.2/ -mtune=corei7 -march=x86-64 -g -Og
REM COMMAND_LINE
REM seed 840697066 -1658123090 -174762558 485377501 -1169497072 -1697339150 -1646951927 -1044171750 -866007528 1266819250 -626762067 -1502021266
REM
REM S 3|1.8|5|6|7|30:31:32(qc=5)
REM O 2|1.5|12|13|15|20:21(qc=5)
REM Li 1|1.3|8|9|10|10U:20(qc=5)
REM Fe 3|2.2|2.0|1.0|8|9|10|40:41:32(qc=5)
REM F 2|1.6|10|12|13|20:21(qc=5)
REM 
CELL 1.54180    5.35202    7.54392   10.90221   90.00000   90.00000  106.75149
LATT -1
SFAC Li O  F  S  Fe 
Li     1  0.0629780000000  0.2033740000000  0.2068200000000 1.0  -0.02
Li     1 -0.0629780000000 -0.2033740000000 -0.2931800000000 1.0  -0.02
Li     1  0.1346150000000  0.4370360000000 -0.1651440000000 1.0  -0.01
Li     1 -0.1346150000000 -0.4370360000000  0.3348560000000 1.0  -0.01
O      2 -0.2740800000000  0.0913520000000  0.0968240000000 1.0   0.04
O      2 -0.1420990000000 -0.0611040000000 -0.0838820000000 1.0   0.04
O      2 -0.1445570000000  0.2625040000000 -0.0961850000000 1.0   0.03
O      2 -0.5545070000000  0.0223530000000 -0.0921130000000 1.0   0.07
O      2  0.2740800000000 -0.0913520000000  0.5968240000000 1.0   0.04
O      2  0.1420990000000  0.0611040000000  0.4161180000000 1.0   0.04
O      2  0.1445570000000 -0.2625040000000  0.4038150000000 1.0   0.03
O      2  0.5545070000000 -0.0223530000000  0.4078870000000 1.0   0.07
O      2  0.6212950000000 -0.3354110000000  0.2456810000000 1.0   0.06
O      2  0.7729640000000 -0.4129290000000  0.0452060000000 1.0   0.04
O      2  0.3907480000000 -0.2949100000000  0.0657260000000 1.0   0.07
O      2  0.3615120000000 -0.6137350000000  0.1298380000000 1.0   0.01
O      2 -0.6212950000000  0.3354110000000 -0.2543190000000 1.0   0.06
O      2 -0.7729640000000  0.4129290000000 -0.4547940000000 1.0   0.04
O      2 -0.3907480000000  0.2949100000000 -0.4342740000000 1.0   0.07
O      2 -0.3615120000000  0.6137350000000 -0.3701620000000 1.0   0.01
F      3  0.1669270000000 -0.0345140000000  0.1584310000000 1.0   0.10
F      3 -0.1669270000000  0.0345140000000 -0.3415690000000 1.0   0.10
F      3 -0.0925000000000  0.3279250000000  0.3320870000000 1.0   0.08
F      3  0.0925000000000 -0.3279250000000 -0.1679130000000 1.0   0.08
S      4 -0.2719130000000  0.0789970000000 -0.0418270000000 1.0   0.01
S      4  0.2719130000000 -0.0789970000000  0.4581730000000 1.0   0.01
S      4  0.5346750000000 -0.4248690000000  0.1184930000000 1.0   0.01
S      4 -0.5346750000000  0.4248690000000 -0.3815070000000 1.0   0.01
Fe     5 -0.1118060000000  0.1901520000000  0.4927420000000 1.0   3.79
Fe     5  0.1118060000000 -0.1901520000000 -0.0072580000000 1.0   3.79
Fe     5  0.4846480000000 -0.0999490000000  0.2232170000000 1.0   3.66
Fe     5 -0.4846480000000  0.0999490000000 -0.2767830000000 1.0   3.66
END
