TITL 4LiFeSO4F-200818-003423-403d18 -0.2327 464.875796 -1.51308304E+004 16.0012 16.3292 32 (C2) n - 1
REM
REM Run started: Tue, 18 Aug 2020 21:57:11 +0100 in /lustre/scratch/uccabz1/launch_tmp/launcher_2020-08-17-23-34-18-766664
REM CASTEP 20.1 from code version af48c487+ pr-geom-scf-spinfix Tue Jun 2 15:39:59 2020 +0100
REM Functional Perdew Burke Ernzerhof Relativity Koelling-Harmon Dispersion off
REM Cut-off 340.0000 eV Grid scale 1.7500 Gmax 16.5316 1/A FBSC none
REM MP grid 4 4 1 Offset 0.000 0.000 0.000 No. kpts 6 Spacing 0.07
REM Total runtime: 82770 s
REM Overall efficiency: 72.9167 %
REM
REM 4LiFeSO4F.cell (79c870615ff1d88195b1fe3fe805288c)
REM
REM compiler GCC version 4.9.2
REM options -cpp -iprefix /lustre/shared/ucl/apps/gcc/4.9.2/bin/../lib/gcc/x86_64-unknown-linux-gnu/4.9.2/ -mtune=corei7 -march=x86-64 -g -Og
REM COMMAND_LINE
REM seed 693722461 -1737793897 1166954232 1369234221 1686959350 1125638546 1359046604 1823264293 -1452757472 1090563838 1212686843 -616974748
REM
REM S 3|1.8|5|6|7|30:31:32(qc=5)
REM O 2|1.5|12|13|15|20:21(qc=5)
REM Li 1|1.3|8|9|10|10U:20(qc=5)
REM Fe 3|2.2|2.0|1.0|8|9|10|40:41:32(qc=5)
REM F 2|1.6|10|12|13|20:21(qc=5)
REM 
CELL 1.54180    5.03812    5.03812   20.25549   90.83366   90.83366   64.73156
LATT -1
SFAC Li O  F  S  Fe 
Li     1 -0.1923560000000  0.2286330000000 -0.1097550000000 1.0  -0.01
Li     1 -0.2286330000000  0.1923560000000  0.1097550000000 1.0  -0.01
Li     1  0.1148480000000 -0.4738090000000 -0.1076700000000 1.0  -0.00
Li     1  0.4738090000000 -0.1148480000000  0.1076700000000 1.0  -0.00
O      2  0.2189380000000  0.1205330000000 -0.0752220000000 1.0   0.01
O      2  0.7446460000000 -0.1170000000000 -0.0983400000000 1.0   0.01
O      2  0.3868980000000 -0.1237200000000 -0.1836720000000 1.0   0.07
O      2  0.4716790000000 -0.4194370000000 -0.0849340000000 1.0   0.01
O      2 -0.1205330000000 -0.2189380000000  0.0752220000000 1.0   0.01
O      2  0.1170000000000 -0.7446460000000  0.0983400000000 1.0   0.01
O      2  0.1237200000000 -0.3868980000000  0.1836720000000 1.0   0.07
O      2  0.4194370000000 -0.4716790000000  0.0849340000000 1.0   0.01
O      2 -0.4577940000000 -0.8498690000000  0.3199500000000 1.0   0.07
O      2 -0.4245580000000 -0.4870720000000  0.3980710000000 1.0   0.08
O      2 -0.8217350000000 -0.3266160000000  0.3205410000000 1.0   0.08
O      2 -0.3157240000000 -0.4752190000000  0.2790290000000 1.0   0.08
O      2  0.8498690000000  0.4577940000000 -0.3199500000000 1.0   0.07
O      2  0.4870720000000  0.4245580000000 -0.3980710000000 1.0   0.08
O      2  0.3266160000000  0.8217350000000 -0.3205410000000 1.0   0.08
O      2  0.4752190000000  0.3157240000000 -0.2790290000000 1.0   0.08
F      3 -0.0401870000000  0.3987090000000 -0.1834220000000 1.0   0.12
F      3 -0.3987090000000  0.0401870000000  0.1834220000000 1.0   0.12
F      3  0.2540420000000  0.1475200000000  0.4934110000000 1.0   0.13
F      3 -0.1475200000000 -0.2540420000000 -0.4934110000000 1.0   0.13
S      4  0.4555280000000 -0.1325860000000 -0.1102690000000 1.0   0.01
S      4  0.1325860000000 -0.4555280000000  0.1102690000000 1.0   0.01
S      4 -0.5045120000000 -0.5368730000000  0.3276850000000 1.0   0.02
S      4  0.5368730000000  0.5045120000000 -0.3276850000000 1.0   0.02
Fe     5 -0.3713890000000  0.1347840000000 -0.4653410000000 1.0   3.46
Fe     5 -0.1347840000000  0.3713890000000  0.4653410000000 1.0   3.46
Fe     5  0.1776260000000  0.1643510000000 -0.2572080000000 1.0   3.86
Fe     5 -0.1643510000000 -0.1776260000000  0.2572080000000 1.0   3.86
END
