TITL 4LiFeSO4F-200818-022402-ad34ea -0.0208 398.444208 -1.51302824E+004 16.0026 16.3059 32 (P43) n - 1
REM
REM Run started: Tue, 18 Aug 2020 04:38:50 +0100 in /lustre/scratch/uccabz1/launch_tmp/launcher_2020-08-18-01-23-52-110718
REM CASTEP 20.1 from code version af48c487+ pr-geom-scf-spinfix Tue Jun 2 15:39:59 2020 +0100
REM Functional Perdew Burke Ernzerhof Relativity Koelling-Harmon Dispersion off
REM Cut-off 340.0000 eV Grid scale 1.7500 Gmax 16.5316 1/A FBSC none
REM MP grid 3 3 2 Offset 0.000 0.000 0.000 No. kpts 3 Spacing 0.07
REM Total runtime: 8135.52 s
REM Overall efficiency: 76.8182 %
REM
REM 4LiFeSO4F.cell (79c870615ff1d88195b1fe3fe805288c)
REM
REM compiler GCC version 4.9.2
REM options -cpp -iprefix /lustre/shared/ucl/apps/gcc/4.9.2/bin/../lib/gcc/x86_64-unknown-linux-gnu/4.9.2/ -mtune=corei7 -march=x86-64 -g -Og
REM COMMAND_LINE
REM seed -558045764 1641009512 -1662839996 -1886346681 1997997077 36493797 -455408686 1020315601 -870830853 1367471909 894868223 -67226139
REM
REM S 3|1.8|5|6|7|30:31:32(qc=5)
REM O 2|1.5|12|13|15|20:21(qc=5)
REM Li 1|1.3|8|9|10|10U:20(qc=5)
REM Fe 3|2.2|2.0|1.0|8|9|10|40:41:32(qc=5)
REM F 2|1.6|10|12|13|20:21(qc=5)
REM 
CELL 1.54180    6.50364    6.50364    9.42008   90.00000   90.00000   90.00000
LATT -1
SFAC Li O  F  S  Fe 
Li     1 -0.1766240000000 -0.1785480000000  0.4883390000000 1.0  -0.03
Li     1  0.1766240000000  0.1785480000000 -0.0116610000000 1.0  -0.03
Li     1 -0.1785480000000  0.1766240000000 -0.2616610000000 1.0  -0.03
Li     1  0.1785480000000 -0.1766240000000  0.2383390000000 1.0  -0.03
O      2 -0.5268040000000 -0.2560800000000  0.2513460000000 1.0   0.01
O      2 -0.1616100000000 -0.1640360000000  0.2678630000000 1.0   0.01
O      2 -0.3562270000000 -0.0445310000000  0.0605770000000 1.0   0.08
O      2 -0.2804570000000 -0.4014080000000  0.0746090000000 1.0   0.08
O      2  0.5268040000000  0.2560800000000 -0.2486540000000 1.0   0.01
O      2  0.1616100000000  0.1640360000000 -0.2321370000000 1.0   0.01
O      2  0.3562270000000  0.0445310000000 -0.4394230000000 1.0   0.08
O      2  0.2804570000000  0.4014080000000 -0.4253910000000 1.0   0.08
O      2 -0.2560800000000  0.5268040000000  0.5013460000000 1.0   0.01
O      2 -0.1640360000000  0.1616100000000  0.5178630000000 1.0   0.01
O      2 -0.0445310000000  0.3562270000000  0.3105770000000 1.0   0.08
O      2 -0.4014080000000  0.2804570000000  0.3246090000000 1.0   0.08
O      2  0.2560800000000 -0.5268040000000  0.0013460000000 1.0   0.01
O      2  0.1640360000000 -0.1616100000000  0.0178630000000 1.0   0.01
O      2  0.0445310000000 -0.3562270000000 -0.1894230000000 1.0   0.08
O      2  0.4014080000000 -0.2804570000000 -0.1753910000000 1.0   0.08
F      3  0.1185340000000 -0.2341750000000  0.4460830000000 1.0   0.10
F      3 -0.1185340000000  0.2341750000000 -0.0539170000000 1.0   0.10
F      3 -0.2341750000000 -0.1185340000000 -0.3039170000000 1.0   0.10
F      3  0.2341750000000  0.1185340000000  0.1960830000000 1.0   0.10
S      4 -0.3359340000000 -0.2150010000000  0.1728950000000 1.0   0.00
S      4  0.3359340000000  0.2150010000000 -0.3271050000000 1.0   0.00
S      4 -0.2150010000000  0.3359340000000  0.4228950000000 1.0   0.00
S      4  0.2150010000000 -0.3359340000000 -0.0771050000000 1.0   0.00
Fe     5 -0.2840820000000 -0.2352120000000 -0.1225640000000 1.0   3.74
Fe     5  0.2840820000000  0.2352120000000  0.3774360000000 1.0   3.74
Fe     5 -0.2352120000000  0.2840820000000  0.1274360000000 1.0   3.74
Fe     5  0.2352120000000 -0.2840820000000 -0.3725640000000 1.0   3.74
END
