TITL 4LiFeSO4F-200818-062059-11dfa1 0.0670 445.375832 -1.51305230E+004 16.0000 16.1878 32 (Cc) n - 1
REM
REM Run started: Tue, 18 Aug 2020 23:38:42 +0100 in /lustre/scratch/uccabz1/launch_tmp/launcher_2020-08-18-10-40-02-717836
REM CASTEP 20.1 from code version af48c487+ pr-geom-scf-spinfix Tue Jun 2 15:39:59 2020 +0100
REM Functional Perdew Burke Ernzerhof Relativity Koelling-Harmon Dispersion off
REM Cut-off 340.0000 eV Grid scale 1.7500 Gmax 16.5316 1/A FBSC none
REM MP grid 3 2 2 Offset 0.000 0.000 0.000 No. kpts 6 Spacing 0.07
REM Total runtime: 50528.4 s
REM Overall efficiency: 72.5 %
REM
REM
REM
REM compiler GCC version 4.9.2
REM options -cpp -iprefix /lustre/shared/ucl/apps/gcc/4.9.2/bin/../lib/gcc/x86_64-unknown-linux-gnu/4.9.2/ -mtune=corei7 -march=x86-64 -g -Og
REM COMMAND_LINE
REM seed 2053211070 499953064 405095518 -1868197996 -1559333006 1345018439 -1444456257 -635790219 -897301118 1943242595 -1016722011 1730507535
REM
REM S 3|1.8|5|6|7|30:31:32(qc=5)
REM O 2|1.5|12|13|15|20:21(qc=5)
REM Li 1|1.3|8|9|10|10U:20(qc=5)
REM Fe 3|2.2|2.0|1.0|8|9|10|40:41:32(qc=5)
REM F 2|1.6|10|12|13|20:21(qc=5)
REM 
CELL 1.54180    5.05054    7.69447   12.15191   71.54287   88.05884   83.85804
LATT -1
SFAC Li O  F  S  Fe 
Li     1  0.2201150000000  0.1543210000000 -0.1786470000000 1.0  -0.01
Li     1 -0.2798850000000 -0.0243270000000  0.1786470000000 1.0  -0.01
Li     1  0.2794450000000 -0.2666570000000 -0.4173950000000 1.0  -0.03
Li     1 -0.2205550000000  0.3159470000000  0.4173950000000 1.0  -0.03
O      2 -0.3609040000000 -0.4539020000000 -0.5492660000000 1.0   0.04
O      2  0.0673740000000 -0.3238980000000 -0.5427260000000 1.0   0.03
O      2 -0.3283020000000 -0.2507150000000 -0.4363180000000 1.0   0.05
O      2 -0.3253070000000 -0.1259900000000 -0.6499620000000 1.0   0.01
O      2  0.1390960000000 -0.0031670000000  0.5492660000000 1.0   0.04
O      2  0.5673740000000  0.1333760000000  0.5427260000000 1.0   0.03
O      2  0.1716980000000  0.3129670000000  0.4363180000000 1.0   0.05
O      2  0.1746930000000  0.2240480000000  0.6499620000000 1.0   0.01
O      2  0.1510530000000 -0.1129340000000 -0.1251870000000 1.0   0.02
O      2  0.5693960000000 -0.2057420000000 -0.2133570000000 1.0   0.06
O      2  0.1392190000000 -0.2961420000000 -0.2578290000000 1.0   0.04
O      2  0.3514040000000 -0.4372520000000 -0.0655820000000 1.0   0.07
O      2 -0.3489470000000 -0.2381210000000  0.1251870000000 1.0   0.02
O      2  0.0693960000000 -0.4190990000000  0.2133570000000 1.0   0.06
O      2 -0.3607810000000 -0.5539710000000  0.2578290000000 1.0   0.04
O      2 -0.1485960000000 -0.5028340000000  0.0655820000000 1.0   0.07
F      3  0.0449870000000  0.0648550000000  0.1749400000000 1.0   0.15
F      3 -0.4550130000000  0.2397950000000 -0.1749400000000 1.0   0.15
F      3  0.0221150000000  0.2814300000000 -0.0823730000000 1.0   0.11
F      3 -0.4778850000000  0.1990570000000  0.0823730000000 1.0   0.11
S      4 -0.2333540000000 -0.2836150000000 -0.5484750000000 1.0   0.01
S      4  0.2666460000000  0.1679100000000  0.5484750000000 1.0   0.01
S      4  0.2991440000000 -0.2570830000000 -0.1650780000000 1.0   0.01
S      4 -0.2008560000000 -0.4221610000000  0.1650780000000 1.0   0.01
Fe     5  0.3150770000000 -0.4382430000000  0.3418800000000 1.0   3.67
Fe     5 -0.1849230000000 -0.0963620000000 -0.3418800000000 1.0   3.67
Fe     5  0.1362290000000  0.2918350000000  0.0749450000000 1.0   3.76
Fe     5 -0.3637710000000  0.3667810000000 -0.0749450000000 1.0   3.76
END
