TITL 4LiFeSO4F-200818-162249-9308bf 0.0543 507.764103 -1.51316485E+004 16.0000 16.2588 32 (Cc) n - 1
REM
REM Run started: Wed, 19 Aug 2020 02:22:02 +0100 in /lustre/scratch/uccabz1/launch_tmp/launcher_2020-08-18-15-22-33-340983
REM CASTEP 20.1 from code version af48c487+ pr-geom-scf-spinfix Tue Jun 2 15:39:59 2020 +0100
REM Functional Perdew Burke Ernzerhof Relativity Koelling-Harmon Dispersion off
REM Cut-off 340.0000 eV Grid scale 1.7500 Gmax 16.5316 1/A FBSC none
REM MP grid 3 3 1 Offset 0.000 0.000 0.000 No. kpts 4 Spacing 0.07
REM Total runtime: 37974.1 s
REM Overall efficiency: 74 %
REM
REM 4LiFeSO4F.cell (79c870615ff1d88195b1fe3fe805288c)
REM
REM compiler GCC version 4.9.2
REM options -cpp -iprefix /lustre/shared/ucl/apps/gcc/4.9.2/bin/../lib/gcc/x86_64-unknown-linux-gnu/4.9.2/ -mtune=corei7 -march=x86-64 -g -Og
REM COMMAND_LINE
REM seed 922148755 -78278906 1599871333 -1554816070 -2112389628 354716903 -1377323797 -1879041216 -1743672919 1471910559 311876934 1941676973
REM
REM S 3|1.8|5|6|7|30:31:32(qc=5)
REM O 2|1.5|12|13|15|20:21(qc=5)
REM Li 1|1.3|8|9|10|10U:20(qc=5)
REM Fe 3|2.2|2.0|1.0|8|9|10|40:41:32(qc=5)
REM F 2|1.6|10|12|13|20:21(qc=5)
REM 
CELL 1.54180    5.70428    5.70428   16.63963  103.44285  103.44285   94.00257
LATT -1
SFAC Li O  F  S  Fe 
Li     1 -0.2141330000000 -0.4832780000000 -0.5296800000000 1.0  -0.01
Li     1 -0.4832780000000 -0.2141330000000 -0.0296800000000 1.0  -0.01
Li     1  0.3192020000000  0.0502950000000 -0.1389520000000 1.0  -0.02
Li     1  0.0502950000000  0.3192020000000  0.3610480000000 1.0  -0.02
O      2 -0.4262860000000  0.4034040000000  0.1960310000000 1.0   0.07
O      2 -0.6527580000000  0.3273570000000  0.2998430000000 1.0   0.05
O      2 -0.5403070000000  0.7457360000000  0.2949400000000 1.0   0.07
O      2 -0.2251000000000  0.5132410000000  0.3491310000000 1.0   0.02
O      2  0.4034040000000 -0.4262860000000 -0.3039690000000 1.0   0.07
O      2  0.3273570000000 -0.6527580000000 -0.2001570000000 1.0   0.05
O      2  0.7457360000000 -0.5403070000000 -0.2050600000000 1.0   0.07
O      2  0.5132410000000 -0.2251000000000 -0.1508690000000 1.0   0.02
O      2 -0.5211040000000  0.0871250000000 -0.4009960000000 1.0   0.07
O      2 -0.2826420000000 -0.1727400000000 -0.4799440000000 1.0   0.01
O      2 -0.0836120000000  0.2172610000000 -0.3790900000000 1.0   0.09
O      2 -0.3765190000000  0.2192560000000 -0.5138860000000 1.0   0.01
O      2  0.0871250000000 -0.5211040000000  0.0990040000000 1.0   0.07
O      2 -0.1727400000000 -0.2826420000000  0.0200560000000 1.0   0.01
O      2  0.2172610000000 -0.0836120000000  0.1209100000000 1.0   0.09
O      2  0.2192560000000 -0.3765190000000 -0.0138860000000 1.0   0.01
F      3  0.0993980000000 -0.5945750000000  0.4828080000000 1.0   0.08
F      3 -0.5945750000000  0.0993980000000 -0.0171920000000 1.0   0.08
F      3  0.0170110000000 -0.0432050000000 -0.2148630000000 1.0   0.14
F      3 -0.0432050000000  0.0170110000000  0.2851370000000 1.0   0.14
S      4 -0.4592550000000  0.4976240000000  0.2847590000000 1.0   0.02
S      4  0.4976240000000 -0.4592550000000 -0.2152410000000 1.0   0.02
S      4 -0.3228300000000  0.0800450000000 -0.4484230000000 1.0   0.01
S      4  0.0800450000000 -0.3228300000000  0.0515770000000 1.0   0.01
Fe     5  0.2338980000000 -0.0495750000000  0.2469510000000 1.0   3.71
Fe     5 -0.0495750000000  0.2338980000000 -0.2530490000000 1.0   3.71
Fe     5  0.3220070000000  0.2340730000000  0.0885560000000 1.0   3.69
Fe     5  0.2340730000000  0.3220070000000 -0.4114440000000 1.0   3.69
END
