TITL 4LiFeSO4F-200818-075741-75c1e9 0.0357 580.142016 -1.51288411E+004 16.0000 16.4488 32 (Cc) n - 1
REM
REM Run started: Tue, 18 Aug 2020 23:15:45 +0100 in /lustre/scratch/uccabz1/launch_tmp/launcher_2020-08-18-06-57-34-733854
REM CASTEP 20.1 from code version af48c487+ pr-geom-scf-spinfix Tue Jun 2 15:39:59 2020 +0100
REM Functional Perdew Burke Ernzerhof Relativity Koelling-Harmon Dispersion off
REM Cut-off 340.0000 eV Grid scale 1.7500 Gmax 16.5316 1/A FBSC none
REM MP grid 3 2 2 Offset 0.000 0.000 0.000 No. kpts 6 Spacing 0.07
REM Total runtime: 62862.6 s
REM Overall efficiency: 71.5833 %
REM
REM 4LiFeSO4F.cell (79c870615ff1d88195b1fe3fe805288c)
REM
REM compiler GCC version 4.9.2
REM options -cpp -iprefix /lustre/shared/ucl/apps/gcc/4.9.2/bin/../lib/gcc/x86_64-unknown-linux-gnu/4.9.2/ -mtune=corei7 -march=x86-64 -g -Og
REM COMMAND_LINE
REM seed -764132831 -1142183334 -94792537 253751914 -1051215949 1487735253 1827843877 -2070123234 -1196945018 503587084 1460364790 1749086271
REM
REM S 3|1.8|5|6|7|30:31:32(qc=5)
REM O 2|1.5|12|13|15|20:21(qc=5)
REM Li 1|1.3|8|9|10|10U:20(qc=5)
REM Fe 3|2.2|2.0|1.0|8|9|10|40:41:32(qc=5)
REM F 2|1.6|10|12|13|20:21(qc=5)
REM 
CELL 1.54180    7.61484    9.66884   10.37746  122.51110  111.52412   90.00000
LATT -1
SFAC Li O  F  S  Fe 
Li     1  0.3512820000000 -0.0215550000000  0.4951850000000 1.0  -0.02
Li     1  0.1439030000000  0.4784450000000  0.4951850000000 1.0  -0.02
Li     1  0.0043720000000 -0.1678080000000 -0.2215020000000 1.0  -0.02
Li     1 -0.2258740000000 -0.6678080000000 -0.2215020000000 1.0  -0.02
O      2  0.0571170000000 -0.6414310000000 -0.4280940000000 1.0   0.06
O      2  0.1241490000000 -0.9154910000000 -0.4837820000000 1.0   0.05
O      2 -0.0951710000000 -0.7963900000000 -0.3521970000000 1.0   0.00
O      2  0.2576510000000 -0.6471390000000 -0.1926470000000 1.0   0.09
O      2 -0.4852120000000 -0.1414310000000 -0.4280940000000 1.0   0.06
O      2 -0.6079310000000 -0.4154910000000 -0.4837820000000 1.0   0.05
O      2 -0.2570260000000 -0.2963900000000 -0.3521970000000 1.0   0.00
O      2 -0.4502980000000 -0.1471390000000 -0.1926470000000 1.0   0.09
O      2 -0.0628340000000  0.0248240000000  0.1527400000000 1.0   0.07
O      2  0.0691600000000  0.0487720000000 -0.0193790000000 1.0   0.01
O      2  0.1533040000000  0.2934900000000  0.2734270000000 1.0   0.06
O      2 -0.1742610000000  0.2059700000000  0.0559000000000 1.0   0.09
O      2  0.2155740000000 -0.4751760000000  0.1527400000000 1.0   0.07
O      2 -0.0885390000000 -0.4512280000000 -0.0193790000000 1.0   0.01
O      2  0.1201230000000 -0.2065100000000  0.2734270000000 1.0   0.06
O      2  0.2301610000000 -0.2940300000000  0.0559000000000 1.0   0.09
F      3 -0.3256700000000  0.8207600000000  0.2308420000000 1.0   0.21
F      3 -0.4434890000000  0.3207600000000  0.2308420000000 1.0   0.21
F      3  0.5590220000000 -0.8114410000000 -0.2766050000000 1.0   0.08
F      3  0.1643730000000 -0.3114410000000 -0.2766050000000 1.0   0.08
S      4  0.0810990000000 -0.7538150000000 -0.3652400000000 1.0   0.00
S      4 -0.4463390000000 -0.2538150000000 -0.3652400000000 1.0   0.00
S      4 -0.0035340000000  0.1387520000000  0.1118050000000 1.0   0.02
S      4  0.1153390000000 -0.3612480000000  0.1118050000000 1.0   0.02
Fe     5 -0.1012780000000 -0.0787070000000  0.2614920000000 1.0   3.68
Fe     5  0.3627700000000  0.4212930000000  0.2614920000000 1.0   3.68
Fe     5  0.5977960000000  0.0783340000000 -0.1621300000000 1.0   3.62
Fe     5  0.2400750000000 -0.4216660000000 -0.1621300000000 1.0   3.62
END
