TITL 4LiFeSO4F-200804-061020-8184a3 -0.0180 536.429798 -1.51296328E+004 16.0000 16.2824 32 (P41) n - 1
REM
REM Run started: Tue, 04 Aug 2020 07:53:04 +0100 in /lustre/scratch/uccabz1/launch_tmp/launcher_2020-08-04-05-10-17-835108
REM CASTEP 20.1 from code version af48c487+ pr-geom-scf-spinfix Tue Jun 2 15:39:59 2020 +0100
REM Functional Perdew Burke Ernzerhof Relativity Koelling-Harmon Dispersion off
REM Cut-off 340.0000 eV Grid scale 1.7500 Gmax 16.5316 1/A FBSC none
REM MP grid 2 2 2 Offset 0.000 0.000 0.000 No. kpts 1 Spacing 0.07
REM Total runtime: 6391.69 s
REM Overall efficiency: 72.75 %
REM
REM 4LiFeSO4F.cell (79c870615ff1d88195b1fe3fe805288c)
REM
REM compiler GCC version 4.9.2
REM options -cpp -iprefix /lustre/shared/ucl/apps/gcc/4.9.2/bin/../lib/gcc/x86_64-unknown-linux-gnu/4.9.2/ -mtune=corei7 -march=x86-64 -g -Og
REM COMMAND_LINE
REM seed -2141990158 -1410418731 810266450 -2108515683 -295819679 1579129490 118602557 1982821216 -1056813924 -585908807 1642601444 1642650932
REM
REM S 3|1.8|5|6|7|30:31:32(qc=5)
REM O 2|1.5|12|13|15|20:21(qc=5)
REM Li 1|1.3|8|9|10|10U:20(qc=5)
REM Fe 3|2.2|2.0|1.0|8|9|10|40:41:32(qc=5)
REM F 2|1.6|10|12|13|20:21(qc=5)
REM 
CELL 1.54180    7.90429    7.90429    8.58592   90.00000   90.00000   90.00000
LATT -1
SFAC Li O  F  S  Fe 
Li     1 -0.1031830000000  0.2875110000000  0.4500450000000 1.0  -0.01
Li     1  0.1031830000000 -0.2875110000000 -0.0499550000000 1.0  -0.01
Li     1 -0.2875110000000 -0.1031830000000 -0.2999550000000 1.0  -0.01
Li     1  0.2875110000000  0.1031830000000  0.2000450000000 1.0  -0.01
O      2  0.2079730000000 -0.3888220000000  0.1332910000000 1.0   0.01
O      2  0.0797290000000 -0.3586280000000  0.3977080000000 1.0   0.08
O      2  0.1832890000000 -0.1059760000000  0.2499820000000 1.0   0.00
O      2  0.3741420000000 -0.3167710000000  0.3747920000000 1.0   0.12
O      2 -0.2079730000000  0.3888220000000 -0.3667090000000 1.0   0.01
O      2 -0.0797290000000  0.3586280000000 -0.1022920000000 1.0   0.08
O      2 -0.1832890000000  0.1059760000000 -0.2500180000000 1.0   0.00
O      2 -0.3741420000000  0.3167710000000 -0.1252080000000 1.0   0.12
O      2  0.3888220000000  0.2079730000000 -0.6167090000000 1.0   0.01
O      2  0.3586280000000  0.0797290000000 -0.3522920000000 1.0   0.08
O      2  0.1059760000000  0.1832890000000 -0.5000180000000 1.0   0.00
O      2  0.3167710000000  0.3741420000000 -0.3752080000000 1.0   0.12
O      2 -0.3888220000000 -0.2079730000000 -0.1167090000000 1.0   0.01
O      2 -0.3586280000000 -0.0797290000000  0.1477080000000 1.0   0.08
O      2 -0.1059760000000 -0.1832890000000 -0.0000180000000 1.0   0.00
O      2 -0.3167710000000 -0.3741420000000  0.1247920000000 1.0   0.12
F      3 -0.1940890000000  0.2754120000000  0.2612600000000 1.0   0.13
F      3  0.1940890000000 -0.2754120000000 -0.2387400000000 1.0   0.13
F      3 -0.2754120000000 -0.1940890000000 -0.4887400000000 1.0   0.13
F      3  0.2754120000000  0.1940890000000  0.0112600000000 1.0   0.13
S      4  0.2031560000000 -0.2887320000000  0.2787040000000 1.0   0.00
S      4 -0.2031560000000  0.2887320000000 -0.2212960000000 1.0   0.00
S      4  0.2887320000000  0.2031560000000 -0.4712960000000 1.0   0.00
S      4 -0.2887320000000 -0.2031560000000  0.0287040000000 1.0   0.00
Fe     5 -0.2505800000000  0.3914310000000  0.0819550000000 1.0   3.67
Fe     5  0.2505800000000 -0.3914310000000 -0.4180450000000 1.0   3.67
Fe     5 -0.3914310000000 -0.2505800000000  0.3319550000000 1.0   3.67
Fe     5  0.3914310000000  0.2505800000000 -0.1680450000000 1.0   3.67
END
