TITL 4LiFeSO4F-200804-065224-288a74 -0.0048 394.283484 -1.51304587E+004 15.9986 16.1902 32 (Pca21) n - 1
REM
REM Run started: Tue, 04 Aug 2020 07:40:45 +0100 in /lustre/scratch/uccabz1/launch_tmp/launcher_2020-08-04-05-52-22-979468
REM CASTEP 20.1 from code version af48c487+ pr-geom-scf-spinfix Tue Jun 2 15:39:59 2020 +0100
REM Functional Perdew Burke Ernzerhof Relativity Koelling-Harmon Dispersion off
REM Cut-off 340.0000 eV Grid scale 1.7500 Gmax 16.5316 1/A FBSC none
REM MP grid 3 2 2 Offset 0.000 0.000 0.000 No. kpts 2 Spacing 0.07
REM Total runtime: 2937.82 s
REM Overall efficiency: 69.875 %
REM
REM 4LiFeSO4F.cell (79c870615ff1d88195b1fe3fe805288c)
REM
REM compiler GCC version 4.9.2
REM options -cpp -iprefix /lustre/shared/ucl/apps/gcc/4.9.2/bin/../lib/gcc/x86_64-unknown-linux-gnu/4.9.2/ -mtune=corei7 -march=x86-64 -g -Og
REM COMMAND_LINE
REM seed -490809729 1935025318 44999687 2086843321 700140703 -653493525 1936886178 -527867117 909253719 2035961102 -1143222469 1112721346
REM
REM S 3|1.8|5|6|7|30:31:32(qc=5)
REM O 2|1.5|12|13|15|20:21(qc=5)
REM Li 1|1.3|8|9|10|10U:20(qc=5)
REM Fe 3|2.2|2.0|1.0|8|9|10|40:41:32(qc=5)
REM F 2|1.6|10|12|13|20:21(qc=5)
REM 
CELL 1.54180    5.96419    8.28891    7.97554   90.00000   90.00000   90.00000
LATT -1
SFAC Li O  F  S  Fe 
Li     1 -0.1750090000000 -0.0161560000000 -0.2705200000000 1.0  -0.03
Li     1  0.1750090000000  0.0161560000000  0.2294800000000 1.0  -0.03
Li     1  0.1750090000000  0.4838440000000 -0.2705200000000 1.0  -0.03
Li     1 -0.1750090000000 -0.4838440000000  0.2294800000000 1.0  -0.03
O      2 -0.0285700000000  0.1793680000000 -0.5391570000000 1.0   0.05
O      2  0.3322140000000  0.0400300000000 -0.5461030000000 1.0   0.06
O      2  0.1324180000000  0.0695170000000 -0.2786780000000 1.0   0.01
O      2  0.3100830000000  0.3075950000000 -0.4186460000000 1.0   0.04
O      2  0.0285700000000 -0.1793680000000 -0.0391570000000 1.0   0.05
O      2 -0.3322140000000 -0.0400300000000 -0.0461030000000 1.0   0.06
O      2 -0.1324180000000 -0.0695170000000  0.2213220000000 1.0   0.01
O      2 -0.3100830000000 -0.3075950000000  0.0813540000000 1.0   0.04
O      2  0.0285700000000 -0.3206320000000 -0.5391570000000 1.0   0.05
O      2 -0.3322140000000 -0.4599700000000 -0.5461030000000 1.0   0.06
O      2 -0.1324180000000 -0.4304830000000 -0.2786780000000 1.0   0.01
O      2 -0.3100830000000 -0.1924050000000 -0.4186460000000 1.0   0.04
O      2 -0.0285700000000  0.3206320000000 -0.0391570000000 1.0   0.05
O      2  0.3322140000000  0.4599700000000 -0.0461030000000 1.0   0.06
O      2  0.1324180000000  0.4304830000000  0.2213220000000 1.0   0.01
O      2  0.3100830000000  0.1924050000000  0.0813540000000 1.0   0.04
F      3 -0.3233200000000  0.3066550000000  0.2326570000000 1.0   0.10
F      3  0.3233200000000 -0.3066550000000 -0.2673430000000 1.0   0.10
F      3  0.3233200000000 -0.1933450000000  0.2326570000000 1.0   0.10
F      3 -0.3233200000000  0.1933450000000 -0.2673430000000 1.0   0.10
S      4  0.1826410000000  0.1506580000000 -0.4392860000000 1.0   0.01
S      4 -0.1826410000000 -0.1506580000000  0.0607140000000 1.0   0.01
S      4 -0.1826410000000 -0.3493420000000 -0.4392860000000 1.0   0.01
S      4  0.1826410000000  0.3493420000000  0.0607140000000 1.0   0.01
Fe     5  0.3344170000000 -0.2907130000000 -0.0031380000000 1.0   3.77
Fe     5 -0.3344170000000  0.2907130000000  0.4968620000000 1.0   3.77
Fe     5 -0.3344170000000  0.2092870000000 -0.0031380000000 1.0   3.77
Fe     5  0.3344170000000 -0.2092870000000  0.4968620000000 1.0   3.77
END
