TITL 4LiFeSO4F-200818-063916-862fce -0.0303 413.810617 -1.51309960E+004 16.0000 16.2283 32 (Pna21) n - 1
REM
REM Run started: Tue, 18 Aug 2020 07:19:19 +0100 in /lustre/scratch/uccabz1/launch_tmp/launcher_2020-08-18-05-39-14-194833
REM CASTEP 20.1 from code version af48c487+ pr-geom-scf-spinfix Tue Jun 2 15:39:59 2020 +0100
REM Functional Perdew Burke Ernzerhof Relativity Koelling-Harmon Dispersion off
REM Cut-off 340.0000 eV Grid scale 1.7500 Gmax 16.5316 1/A FBSC none
REM MP grid 4 2 2 Offset 0.000 0.000 0.000 No. kpts 2 Spacing 0.07
REM Total runtime: 2610.18 s
REM Overall efficiency: 75.7143 %
REM
REM 4LiFeSO4F.cell (79c870615ff1d88195b1fe3fe805288c)
REM
REM compiler GCC version 4.9.2
REM options -cpp -iprefix /lustre/shared/ucl/apps/gcc/4.9.2/bin/../lib/gcc/x86_64-unknown-linux-gnu/4.9.2/ -mtune=corei7 -march=x86-64 -g -Og
REM COMMAND_LINE
REM seed -913307423 -1327140163 -249875941 -330613298 -1754619366 4912087 653160243 -695279745 -1573204474 -411779375 -108706491 25613547
REM
REM S 3|1.8|5|6|7|30:31:32(qc=5)
REM O 2|1.5|12|13|15|20:21(qc=5)
REM Li 1|1.3|8|9|10|10U:20(qc=5)
REM Fe 3|2.2|2.0|1.0|8|9|10|40:41:32(qc=5)
REM F 2|1.6|10|12|13|20:21(qc=5)
REM 
CELL 1.54180    4.57352    9.15793    9.87993   90.00000   90.00000   90.00000
LATT -1
SFAC Li O  F  S  Fe 
Li     1 -0.0793960000000 -0.1509560000000  0.4002830000000 1.0  -0.04
Li     1  0.0793960000000  0.1509560000000 -0.0997170000000 1.0  -0.04
Li     1 -0.4206040000000  0.3490440000000  0.4002830000000 1.0  -0.04
Li     1  0.4206040000000 -0.3490440000000 -0.0997170000000 1.0  -0.04
O      2  0.3052370000000 -0.4983200000000  0.1468530000000 1.0   0.06
O      2  0.3186110000000 -0.4757390000000  0.3957220000000 1.0   0.04
O      2 -0.1228740000000 -0.5628690000000  0.2810220000000 1.0   0.05
O      2  0.0240990000000 -0.3034140000000  0.2581080000000 1.0   0.02
O      2 -0.3052370000000  0.4983200000000 -0.3531470000000 1.0   0.06
O      2 -0.3186110000000  0.4757390000000 -0.1042780000000 1.0   0.04
O      2  0.1228740000000  0.5628690000000 -0.2189780000000 1.0   0.05
O      2 -0.0240990000000  0.3034140000000 -0.2418920000000 1.0   0.02
O      2  0.1947630000000  0.0016800000000  0.1468530000000 1.0   0.06
O      2  0.1813890000000  0.0242610000000  0.3957220000000 1.0   0.04
O      2  0.6228740000000 -0.0628690000000  0.2810220000000 1.0   0.05
O      2  0.4759010000000  0.1965860000000  0.2581080000000 1.0   0.02
O      2 -0.1947630000000 -0.0016800000000 -0.3531470000000 1.0   0.06
O      2 -0.1813890000000 -0.0242610000000 -0.1042780000000 1.0   0.04
O      2 -0.6228740000000  0.0628690000000 -0.2189780000000 1.0   0.05
O      2 -0.4759010000000 -0.1965860000000 -0.2418920000000 1.0   0.02
F      3 -0.4341320000000 -0.2498230000000  0.0417310000000 1.0   0.12
F      3  0.4341320000000  0.2498230000000 -0.4582690000000 1.0   0.12
F      3 -0.0658680000000  0.2501770000000  0.0417310000000 1.0   0.12
F      3  0.0658680000000 -0.2501770000000 -0.4582690000000 1.0   0.12
S      4  0.1311780000000 -0.4569370000000  0.2715200000000 1.0   0.02
S      4 -0.1311780000000  0.4569370000000 -0.2284800000000 1.0   0.02
S      4  0.3688220000000  0.0430630000000  0.2715200000000 1.0   0.02
S      4 -0.3688220000000 -0.0430630000000 -0.2284800000000 1.0   0.02
Fe     5  0.1405930000000  0.1263220000000 -0.3966340000000 1.0   3.72
Fe     5 -0.1405930000000 -0.1263220000000  0.1033660000000 1.0   3.72
Fe     5  0.3594070000000 -0.3736780000000 -0.3966340000000 1.0   3.72
Fe     5 -0.3594070000000  0.3736780000000  0.1033660000000 1.0   3.72
END
