TITL 4LiFeSO4F-200804-075301-719cf1 -0.0569 466.462750 -1.51299060E+004 16.0000 16.2829 32 (C2) n - 1
REM
REM Run started: Wed, 05 Aug 2020 01:35:50 +0100 in /lustre/scratch/uccabz1/launch_tmp/launcher_2020-08-04-06-52-50-306612
REM CASTEP 20.1 from code version af48c487+ pr-geom-scf-spinfix Tue Jun 2 15:39:59 2020 +0100
REM Functional Perdew Burke Ernzerhof Relativity Koelling-Harmon Dispersion off
REM Cut-off 340.0000 eV Grid scale 1.7500 Gmax 16.5316 1/A FBSC none
REM MP grid 3 3 2 Offset 0.000 0.000 0.000 No. kpts 6 Spacing 0.07
REM Total runtime: 72165.5 s
REM Overall efficiency: 71.25 %
REM
REM 4LiFeSO4F.cell (79c870615ff1d88195b1fe3fe805288c)
REM
REM compiler GCC version 4.9.2
REM options -cpp -iprefix /lustre/shared/ucl/apps/gcc/4.9.2/bin/../lib/gcc/x86_64-unknown-linux-gnu/4.9.2/ -mtune=corei7 -march=x86-64 -g -Og
REM COMMAND_LINE
REM seed 827232316 615490654 172575420 942289104 -1834070650 451378622 -541643197 412503952 -1424468436 -808263285 817760920 89876641
REM
REM S 3|1.8|5|6|7|30:31:32(qc=5)
REM O 2|1.5|12|13|15|20:21(qc=5)
REM Li 1|1.3|8|9|10|10U:20(qc=5)
REM Fe 3|2.2|2.0|1.0|8|9|10|40:41:32(qc=5)
REM F 2|1.6|10|12|13|20:21(qc=5)
REM 
CELL 1.54180    6.24027    6.24027   12.20981   86.27345   86.27345   79.93844
LATT -1
SFAC Li O  F  S  Fe 
Li     1 -0.3566540000000 -0.2975960000000 -0.2281330000000 1.0  -0.03
Li     1  0.2975960000000  0.3566540000000  0.2281330000000 1.0  -0.03
Li     1  0.2651050000000  0.0924520000000 -0.3090660000000 1.0  -0.02
Li     1 -0.0924520000000 -0.2651050000000  0.3090660000000 1.0  -0.02
O      2 -0.1695290000000  0.0345400000000  0.3450340000000 1.0   0.04
O      2 -0.0611700000000  0.3935240000000  0.3511290000000 1.0   0.04
O      2 -0.4486150000000  0.3548430000000  0.3307910000000 1.0   0.01
O      2 -0.1700880000000  0.2863990000000  0.1776430000000 1.0   0.09
O      2 -0.0345400000000  0.1695290000000 -0.3450340000000 1.0   0.04
O      2 -0.3935240000000  0.0611700000000 -0.3511290000000 1.0   0.04
O      2 -0.3548430000000  0.4486150000000 -0.3307910000000 1.0   0.01
O      2 -0.2863990000000  0.1700880000000 -0.1776430000000 1.0   0.09
O      2  0.2443340000000 -0.5989940000000 -0.1970400000000 1.0   0.10
O      2  0.1779750000000 -0.4236880000000 -0.3796420000000 1.0   0.06
O      2  0.3164860000000 -0.2193170000000 -0.2435100000000 1.0   0.01
O      2 -0.0574880000000 -0.2912620000000 -0.2174330000000 1.0   0.01
O      2  0.5989940000000 -0.2443340000000  0.1970400000000 1.0   0.10
O      2  0.4236880000000 -0.1779750000000  0.3796420000000 1.0   0.06
O      2  0.2193170000000 -0.3164860000000  0.2435100000000 1.0   0.01
O      2  0.2912620000000  0.0574880000000  0.2174330000000 1.0   0.01
F      3  0.2905950000000  0.1673480000000 -0.4866910000000 1.0   0.11
F      3 -0.1673480000000 -0.2905950000000  0.4866910000000 1.0   0.11
F      3  0.4006400000000  0.3749700000000  0.0660350000000 1.0   0.11
F      3 -0.3749700000000 -0.4006400000000 -0.0660350000000 1.0   0.11
S      4 -0.2174860000000  0.2680370000000  0.3020000000000 1.0   0.01
S      4 -0.2680370000000  0.2174860000000 -0.3020000000000 1.0   0.01
S      4  0.1649640000000 -0.3760260000000 -0.2603500000000 1.0   0.01
S      4  0.3760260000000 -0.1649640000000  0.2603500000000 1.0   0.01
Fe     5 -0.4155800000000 -0.0294560000000 -0.5156920000000 1.0   3.77
Fe     5  0.0294560000000  0.4155800000000  0.5156920000000 1.0   3.77
Fe     5  0.4698930000000  0.3414080000000 -0.0925540000000 1.0   3.69
Fe     5 -0.3414080000000 -0.4698930000000  0.0925540000000 1.0   3.69
END
