TITL 4LiFeSO4F-200818-031828-52ca77 0.0533 451.701467 -1.51308663E+004 16.0002 16.2952 32 (P-1) n - 1
REM
REM Run started: Tue, 18 Aug 2020 10:35:48 +0100 in /lustre/scratch/uccabz1/launch_tmp/launcher_2020-08-18-02-18-25-569400
REM CASTEP 20.1 from code version af48c487+ pr-geom-scf-spinfix Tue Jun 2 15:39:59 2020 +0100
REM Functional Perdew Burke Ernzerhof Relativity Koelling-Harmon Dispersion off
REM Cut-off 340.0000 eV Grid scale 1.7500 Gmax 16.5316 1/A FBSC none
REM MP grid 3 2 2 Offset 0.000 0.000 0.000 No. kpts 6 Spacing 0.07
REM Total runtime: 26375 s
REM Overall efficiency: 73.2727 %
REM
REM 4LiFeSO4F.cell (79c870615ff1d88195b1fe3fe805288c)
REM
REM compiler GCC version 4.9.2
REM options -cpp -iprefix /lustre/shared/ucl/apps/gcc/4.9.2/bin/../lib/gcc/x86_64-unknown-linux-gnu/4.9.2/ -mtune=corei7 -march=x86-64 -g -Og
REM COMMAND_LINE
REM seed -515768488 -1080921261 -940015005 433274298 1164456882 -1791463776 -225399304 -573915716 930306631 1420836838 1169884 676433482
REM
REM S 3|1.8|5|6|7|30:31:32(qc=5)
REM O 2|1.5|12|13|15|20:21(qc=5)
REM Li 1|1.3|8|9|10|10U:20(qc=5)
REM Fe 3|2.2|2.0|1.0|8|9|10|40:41:32(qc=5)
REM F 2|1.6|10|12|13|20:21(qc=5)
REM 
CELL 1.54180    6.18042    7.76203    9.99390   77.00142   75.72939   83.15561
LATT -1
SFAC Li O  F  S  Fe 
Li     1  0.3704920000000  0.0206400000000  0.1358960000000 1.0  -0.01
Li     1 -0.3704920000000 -0.0206400000000 -0.1358960000000 1.0  -0.01
Li     1 -0.0518400000000  0.2490170000000  0.1369670000000 1.0  -0.01
Li     1  0.0518400000000 -0.2490170000000 -0.1369670000000 1.0  -0.01
O      2 -0.2536610000000 -0.6444320000000 -0.2651500000000 1.0   0.07
O      2 -0.1099770000000 -0.4148830000000 -0.1797520000000 1.0   0.01
O      2  0.1387440000000 -0.6616380000000 -0.2666400000000 1.0   0.10
O      2 -0.1366740000000 -0.7186750000000 -0.0383190000000 1.0   0.01
O      2  0.2536610000000  0.6444320000000  0.2651500000000 1.0   0.07
O      2  0.1099770000000  0.4148830000000  0.1797520000000 1.0   0.01
O      2 -0.1387440000000  0.6616380000000  0.2666400000000 1.0   0.10
O      2  0.1366740000000  0.7186750000000  0.0383190000000 1.0   0.01
O      2  0.4629020000000 -0.0524790000000 -0.2837710000000 1.0   0.07
O      2  0.6654280000000 -0.2473980000000 -0.4531840000000 1.0   0.06
O      2  0.2664410000000 -0.1362290000000 -0.4365240000000 1.0   0.05
O      2  0.3765060000000 -0.3612130000000 -0.2430110000000 1.0   0.06
O      2 -0.4629020000000  0.0524790000000  0.2837710000000 1.0   0.07
O      2 -0.6654280000000  0.2473980000000  0.4531840000000 1.0   0.06
O      2 -0.2664410000000  0.1362290000000  0.4365240000000 1.0   0.05
O      2 -0.3765060000000  0.3612130000000  0.2430110000000 1.0   0.06
F      3  0.4106410000000  0.1608120000000 -0.0569680000000 1.0   0.10
F      3 -0.4106410000000 -0.1608120000000  0.0569680000000 1.0   0.10
F      3 -0.0515380000000 -0.0200210000000 -0.2125350000000 1.0   0.09
F      3  0.0515380000000  0.0200210000000  0.2125350000000 1.0   0.09
S      4 -0.0987270000000 -0.6055710000000 -0.1809790000000 1.0   0.01
S      4  0.0987270000000  0.6055710000000  0.1809790000000 1.0   0.01
S      4  0.4474640000000 -0.2012380000000 -0.3580550000000 1.0   0.01
S      4 -0.4474640000000  0.2012380000000  0.3580550000000 1.0   0.01
Fe     5  0.1846790000000  0.1109670000000 -0.3551940000000 1.0   3.72
Fe     5 -0.1846790000000 -0.1109670000000  0.3551940000000 1.0   3.72
Fe     5 -0.4154920000000 -0.3731340000000  0.2033400000000 1.0   3.67
Fe     5  0.4154920000000  0.3731340000000 -0.2033400000000 1.0   3.67
END
