TITL 4LiFeSO4F-200804-090939-8fe7b3 0.0632 522.228457 -1.51304925E+004 16.0000 16.4234 32 (Cc) n - 1
REM
REM Run started: Wed, 05 Aug 2020 00:28:31 +0100 in /lustre/scratch/uccabz1/launch_tmp/launcher_2020-08-04-17-16-26-822283
REM CASTEP 20.1 from code version af48c487+ pr-geom-scf-spinfix Tue Jun 2 15:39:59 2020 +0100
REM Functional Perdew Burke Ernzerhof Relativity Koelling-Harmon Dispersion off
REM Cut-off 340.0000 eV Grid scale 1.7500 Gmax 16.5316 1/A FBSC none
REM MP grid 4 3 1 Offset 0.000 0.000 0.000 No. kpts 6 Spacing 0.07
REM Total runtime: 25419.4 s
REM Overall efficiency: 76.3333 %
REM
REM
REM
REM compiler GCC version 4.9.2
REM options -cpp -iprefix /lustre/shared/ucl/apps/gcc/4.9.2/bin/../lib/gcc/x86_64-unknown-linux-gnu/4.9.2/ -mtune=corei7 -march=x86-64 -g -Og
REM COMMAND_LINE
REM seed -1471360510 -1764304293 1525315393 1722874617 -508570196 -1307624843 1271488880 -901235196 -1857830953 -1508021472 -753533884 1509786594
REM
REM S 3|1.8|5|6|7|30:31:32(qc=5)
REM O 2|1.5|12|13|15|20:21(qc=5)
REM Li 1|1.3|8|9|10|10U:20(qc=5)
REM Fe 3|2.2|2.0|1.0|8|9|10|40:41:32(qc=5)
REM F 2|1.6|10|12|13|20:21(qc=5)
REM 
CELL 1.54180    5.03264    7.59865   14.48512   92.23371   90.00000  109.33881
LATT -1
SFAC Li O  F  S  Fe 
Li     1 -0.5712710000000 -0.2374330000000  0.0399250000000 1.0  -0.01
Li     1 -0.1661620000000 -0.2374330000000 -0.4600750000000 1.0  -0.01
Li     1  0.1671390000000  0.2395210000000  0.4054230000000 1.0  -0.02
Li     1  0.5723810000000  0.2395210000000 -0.0945770000000 1.0  -0.02
O      2  0.4082060000000  0.1603770000000 -0.5250700000000 1.0   0.01
O      2  0.2143770000000 -0.1062620000000 -0.4229310000000 1.0   0.02
O      2  0.6656680000000  0.1342290000000 -0.3844100000000 1.0   0.11
O      2  0.6358440000000 -0.0798280000000 -0.5157550000000 1.0   0.05
O      2  0.2521710000000  0.1603770000000 -0.0250700000000 1.0   0.01
O      2  0.1793620000000 -0.1062620000000  0.0770690000000 1.0   0.02
O      2 -0.0314390000000  0.1342290000000  0.1155900000000 1.0   0.11
O      2 -0.2156720000000 -0.0798280000000 -0.0157550000000 1.0   0.05
O      2 -0.1959800000000 -0.3350180000000  0.3856810000000 1.0   0.05
O      2  0.2556160000000 -0.2625780000000  0.3065900000000 1.0   0.07
O      2 -0.1249650000000 -0.5462000000000  0.2613300000000 1.0   0.08
O      2  0.1032440000000 -0.5238320000000  0.4147870000000 1.0   0.02
O      2  0.3609620000000 -0.3350180000000 -0.1143190000000 1.0   0.05
O      2 -0.0181950000000 -0.2625780000000 -0.1934100000000 1.0   0.07
O      2  0.0787650000000 -0.5462000000000 -0.2386700000000 1.0   0.08
O      2 -0.1270760000000 -0.5238320000000 -0.0852130000000 1.0   0.02
F      3 -0.6086950000000 -0.4273720000000  0.1171700000000 1.0   0.14
F      3 -0.3186770000000 -0.4273720000000 -0.3828300000000 1.0   0.14
F      3 -0.0511900000000  0.0809300000000  0.3173000000000 1.0   0.11
F      3  0.6321200000000  0.0809300000000 -0.1827000000000 1.0   0.11
S      4  0.4682070000000  0.0259470000000 -0.4635240000000 1.0   0.01
S      4  0.0577400000000  0.0259470000000  0.0364760000000 1.0   0.01
S      4  0.0117670000000 -0.4193720000000  0.3445690000000 1.0   0.02
S      4  0.0688610000000 -0.4193720000000 -0.1554310000000 1.0   0.02
Fe     5 -0.3565130000000 -0.1311890000000  0.3363430000000 1.0   3.71
Fe     5 -0.2746770000000 -0.1311890000000 -0.1636570000000 1.0   3.71
Fe     5  0.0888730000000  0.3844500000000  0.1615980000000 1.0   3.64
Fe     5 -0.2044240000000  0.3844500000000 -0.3384020000000 1.0   3.64
END
