TITL 4LiFeSO4F-200818-103741-8d045b -0.1700 476.748955 -1.51299540E+004 16.0000 16.2686 32 (Pc) n - 1
REM
REM Run started: Tue, 18 Aug 2020 16:53:24 +0100 in /lustre/scratch/uccabz1/launch_tmp/launcher_2020-08-18-09-37-38-951282
REM CASTEP 20.1 from code version af48c487+ pr-geom-scf-spinfix Tue Jun 2 15:39:59 2020 +0100
REM Functional Perdew Burke Ernzerhof Relativity Koelling-Harmon Dispersion off
REM Cut-off 340.0000 eV Grid scale 1.7500 Gmax 16.5316 1/A FBSC none
REM MP grid 3 2 2 Offset 0.000 0.000 0.000 No. kpts 3 Spacing 0.07
REM Total runtime: 25091.4 s
REM Overall efficiency: 75.1667 %
REM
REM 4LiFeSO4F.cell (79c870615ff1d88195b1fe3fe805288c)
REM
REM compiler GCC version 4.9.2
REM options -cpp -iprefix /lustre/shared/ucl/apps/gcc/4.9.2/bin/../lib/gcc/x86_64-unknown-linux-gnu/4.9.2/ -mtune=corei7 -march=x86-64 -g -Og
REM COMMAND_LINE
REM seed -1542799552 -139352916 1263802287 1697802482 -294946188 524270407 1352432952 -1478238331 1394511849 -318624892 1664242771 -1353920321
REM
REM S 3|1.8|5|6|7|30:31:32(qc=5)
REM O 2|1.5|12|13|15|20:21(qc=5)
REM Li 1|1.3|8|9|10|10U:20(qc=5)
REM Fe 3|2.2|2.0|1.0|8|9|10|40:41:32(qc=5)
REM F 2|1.6|10|12|13|20:21(qc=5)
REM 
CELL 1.54180    8.23935    9.66803    7.47368   90.00000   90.00000  126.79347
LATT -1
SFAC Li O  F  S  Fe 
Li     1 -0.0390730000000  0.1122430000000  0.2835240000000 1.0  -0.01
Li     1  0.4609270000000 -0.3877570000000 -0.2835240000000 1.0  -0.01
Li     1  0.1342880000000 -0.2567830000000 -0.0973950000000 1.0  -0.02
Li     1  0.6342880000000  0.2432170000000  0.0973950000000 1.0  -0.02
O      2 -0.3962590000000  0.5221560000000 -0.3400790000000 1.0   0.02
O      2 -0.4021520000000  0.3775130000000 -0.0625390000000 1.0   0.02
O      2 -0.1626120000000  0.4463120000000 -0.3047310000000 1.0   0.09
O      2 -0.5315760000000  0.2176050000000 -0.3474390000000 1.0   0.08
O      2  0.1037410000000  0.0221560000000  0.3400790000000 1.0   0.02
O      2  0.0978480000000 -0.1224870000000  0.0625390000000 1.0   0.02
O      2  0.3373880000000 -0.0536880000000  0.3047310000000 1.0   0.09
O      2 -0.0315760000000 -0.2823950000000  0.3474390000000 1.0   0.08
O      2  0.4426820000000  0.5879540000000  0.1697480000000 1.0   0.06
O      2  0.1797050000000  0.6185830000000  0.1082500000000 1.0   0.06
O      2  0.0834210000000  0.3267300000000  0.1725440000000 1.0   0.01
O      2  0.2413320000000  0.4650080000000 -0.1121410000000 1.0   0.06
O      2 -0.0573180000000  0.0879540000000 -0.1697480000000 1.0   0.06
O      2 -0.3202950000000  0.1185830000000 -0.1082500000000 1.0   0.06
O      2 -0.4165790000000 -0.1732700000000 -0.1725440000000 1.0   0.01
O      2 -0.2586680000000 -0.0349920000000  0.1121410000000 1.0   0.06
F      3 -0.2525980000000  0.3086510000000  0.3170320000000 1.0   0.10
F      3  0.2474020000000 -0.1913490000000 -0.3170320000000 1.0   0.10
F      3  0.1263090000000  0.4576600000000 -0.4571400000000 1.0   0.12
F      3 -0.3736910000000 -0.0423400000000  0.4571400000000 1.0   0.12
S      4 -0.3798850000000  0.3918210000000 -0.2593540000000 1.0   0.01
S      4  0.1201150000000 -0.1081790000000  0.2593540000000 1.0   0.01
S      4  0.2361320000000  0.4930740000000  0.0881870000000 1.0   0.01
S      4 -0.2638680000000 -0.0069260000000 -0.0881870000000 1.0   0.01
Fe     5 -0.5322430000000 -0.1862730000000  0.2431080000000 1.0   3.66
Fe     5 -0.0322430000000  0.3137270000000 -0.2431080000000 1.0   3.66
Fe     5  0.4521340000000  0.0235920000000 -0.4360860000000 1.0   3.74
Fe     5 -0.0478660000000 -0.4764080000000  0.4360860000000 1.0   3.74
END
