TITL 4LiFeSO4F-200818-150730-6ede1f 0.0146 554.997275 -1.51217707E+004 13.9863 15.5653 32 (Pm) n - 1
REM
REM Run started: Wed, 19 Aug 2020 01:02:35 +0100 in /lustre/scratch/uccabz1/launch_tmp/launcher_2020-08-18-14-07-27-649155
REM CASTEP 20.1 from code version af48c487+ pr-geom-scf-spinfix Tue Jun 2 15:39:59 2020 +0100
REM Functional Perdew Burke Ernzerhof Relativity Koelling-Harmon Dispersion off
REM Cut-off 340.0000 eV Grid scale 1.7500 Gmax 16.5316 1/A FBSC none
REM MP grid 3 3 2 Offset 0.000 0.000 0.000 No. kpts 5 Spacing 0.07
REM Total runtime: 39558.1 s
REM Overall efficiency: 75.3333 %
REM
REM 4LiFeSO4F.cell (79c870615ff1d88195b1fe3fe805288c)
REM
REM compiler GCC version 4.9.2
REM options -cpp -iprefix /lustre/shared/ucl/apps/gcc/4.9.2/bin/../lib/gcc/x86_64-unknown-linux-gnu/4.9.2/ -mtune=corei7 -march=x86-64 -g -Og
REM COMMAND_LINE
REM seed 531836 2061392956 -1307744950 1795470325 446389448 2092021969 96229720 -1107043509 -342187863 1935087921 -1011729197 -806813474
REM
REM S 3|1.8|5|6|7|30:31:32(qc=5)
REM O 2|1.5|12|13|15|20:21(qc=5)
REM Li 1|1.3|8|9|10|10U:20(qc=5)
REM Fe 3|2.2|2.0|1.0|8|9|10|40:41:32(qc=5)
REM F 2|1.6|10|12|13|20:21(qc=5)
REM 
CELL 1.54180    7.81240    7.46592   10.50771   90.00000   90.00000  115.10181
LATT -1
SFAC Li O  F  S  Fe 
Li     1  0.0380000000000  0.1222490000000  0.2471740000000 1.0   0.00
Li     1  0.0380000000000  0.1222490000000 -0.2471740000000 1.0   0.00
Li     1 -0.3327670000000 -0.0850560000000  0.0000000000000 1.0  -0.05
Li     1 -0.0111780000000  0.2817360000000  0.0000000000000 1.0   0.02
O      2 -0.3089550000000  0.2606200000000 -0.3366680000000 1.0   0.32
O      2 -0.7849350000000  0.0922270000000 -0.3825610000000 1.0   0.00
O      2 -0.4942120000000  0.5283890000000 -0.3806110000000 1.0   0.02
O      2 -0.4792540000000  0.6419170000000 -0.1154200000000 1.0   0.14
O      2 -0.3089550000000  0.2606200000000  0.3366680000000 1.0   0.32
O      2 -0.7849350000000  0.0922270000000  0.3825610000000 1.0   0.00
O      2 -0.4942120000000  0.5283890000000  0.3806110000000 1.0   0.02
O      2 -0.4792540000000  0.6419170000000  0.1154200000000 1.0   0.14
O      2  0.4479160000000 -0.1333570000000 -0.2748890000000 1.0   0.32
O      2  0.1307800000000 -0.3083620000000 -0.1202910000000 1.0  -0.07
O      2  0.1455420000000 -0.4484390000000 -0.3553290000000 1.0   0.79
O      2 -0.1711290000000 -0.0245860000000 -0.3635290000000 1.0   0.27
O      2  0.4479160000000 -0.1333570000000  0.2748890000000 1.0   0.32
O      2  0.1307800000000 -0.3083620000000  0.1202910000000 1.0  -0.07
O      2  0.1455420000000 -0.4484390000000  0.3553290000000 1.0   0.79
O      2 -0.1711290000000 -0.0245860000000  0.3635290000000 1.0   0.27
F      3  0.1748430000000  0.3479290000000 -0.1518800000000 1.0   0.05
F      3  0.1748430000000  0.3479290000000  0.1518800000000 1.0   0.05
F      3 -0.1863620000000  0.0857440000000  0.1233360000000 1.0   0.08
F      3 -0.1863620000000  0.0857440000000 -0.1233360000000 1.0   0.08
S      4  0.1935880000000 -0.1791230000000  0.0000000000000 1.0  -0.39
S      4  0.1344000000000 -0.0194820000000  0.5000000000000 1.0   0.01
S      4 -0.3906410000000 -0.4569880000000  0.5000000000000 1.0   0.02
S      4 -0.4855340000000  0.5119820000000  0.0000000000000 1.0   0.56
Fe     5  0.2977300000000 -0.3955720000000 -0.2385390000000 1.0   2.84
Fe     5  0.2977300000000 -0.3955720000000  0.2385390000000 1.0   2.84
Fe     5 -0.3294450000000  0.0424400000000 -0.3041940000000 1.0   2.14
Fe     5 -0.3294450000000  0.0424400000000  0.3041940000000 1.0   2.14
END
