TITL 4LiFeSO4F-200804-060103-483168 -0.1222 502.389027 -1.51309884E+004 16.0001 16.1636 32 (P21) n - 1
REM
REM Run started: Wed, 05 Aug 2020 02:22:53 +0100 in /lustre/scratch/uccabz1/launch_tmp/launcher_2020-08-04-17-59-53-029198
REM CASTEP 20.1 from code version af48c487+ pr-geom-scf-spinfix Tue Jun 2 15:39:59 2020 +0100
REM Functional Perdew Burke Ernzerhof Relativity Koelling-Harmon Dispersion off
REM Cut-off 340.0000 eV Grid scale 1.7500 Gmax 16.5316 1/A FBSC none
REM MP grid 3 2 2 Offset 0.000 0.000 0.000 No. kpts 4 Spacing 0.07
REM Total runtime: 33153.5 s
REM Overall efficiency: 71.625 %
REM
REM
REM
REM compiler GCC version 4.9.2
REM options -cpp -iprefix /lustre/shared/ucl/apps/gcc/4.9.2/bin/../lib/gcc/x86_64-unknown-linux-gnu/4.9.2/ -mtune=corei7 -march=x86-64 -g -Og
REM COMMAND_LINE
REM seed -1447334836 493547827 1187155241 -849314426 1909838001 1593803248 78119889 726268598 664450525 -2101705949 -491112435 -1147263328
REM
REM S 3|1.8|5|6|7|30:31:32(qc=5)
REM O 2|1.5|12|13|15|20:21(qc=5)
REM Li 1|1.3|8|9|10|10U:20(qc=5)
REM Fe 3|2.2|2.0|1.0|8|9|10|40:41:32(qc=5)
REM F 2|1.6|10|12|13|20:21(qc=5)
REM 
CELL 1.54180    4.96515    9.32696   10.85561   92.08028   90.00000   90.00000
LATT -1
SFAC Li O  F  S  Fe 
Li     1 -0.1315410000000 -0.2277320000000 -0.1037760000000 1.0  -0.01
Li     1  0.3684590000000  0.2277320000000  0.1037760000000 1.0  -0.01
Li     1  0.5161130000000 -0.1158190000000  0.1884380000000 1.0  -0.02
Li     1  0.0161130000000  0.1158190000000 -0.1884380000000 1.0  -0.02
O      2 -0.5810260000000 -0.1561420000000  0.5862690000000 1.0   0.06
O      2 -0.4984990000000 -0.0911490000000  0.3726990000000 1.0   0.03
O      2 -0.5620800000000 -0.3461720000000  0.4252840000000 1.0   0.08
O      2 -0.1509050000000 -0.2154650000000  0.4913240000000 1.0   0.08
O      2 -0.0810260000000  0.1561420000000 -0.5862690000000 1.0   0.06
O      2  0.0015010000000  0.0911490000000 -0.3726990000000 1.0   0.03
O      2 -0.0620800000000  0.3461720000000 -0.4252840000000 1.0   0.08
O      2  0.3490950000000  0.2154650000000 -0.4913240000000 1.0   0.08
O      2  0.7777480000000  0.2860530000000 -0.1661910000000 1.0   0.06
O      2  0.5060080000000  0.3836970000000  0.0086100000000 1.0   0.01
O      2  0.3547650000000  0.1696930000000 -0.1060550000000 1.0   0.01
O      2  0.3578130000000  0.4049350000000 -0.2107260000000 1.0   0.05
O      2  0.2777480000000 -0.2860530000000  0.1661910000000 1.0   0.06
O      2  0.0060080000000 -0.3836970000000 -0.0086100000000 1.0   0.01
O      2 -0.1452350000000 -0.1696930000000  0.1060550000000 1.0   0.01
O      2 -0.1421870000000 -0.4049350000000  0.2107260000000 1.0   0.05
F      3 -0.0755280000000 -0.3440270000000 -0.2559800000000 1.0   0.10
F      3 -0.5755280000000  0.3440270000000  0.2559800000000 1.0   0.10
F      3 -0.0322590000000 -0.0774790000000 -0.1853060000000 1.0   0.07
F      3  0.4677410000000  0.0774790000000  0.1853060000000 1.0   0.07
S      4 -0.4505430000000 -0.2013760000000  0.4676280000000 1.0   0.02
S      4  0.0494570000000  0.2013760000000 -0.4676280000000 1.0   0.02
S      4  0.4928260000000  0.3131170000000 -0.1165800000000 1.0   0.01
S      4 -0.0071740000000 -0.3131170000000  0.1165800000000 1.0   0.01
Fe     5 -0.4704980000000  0.1526560000000  0.3546120000000 1.0   3.74
Fe     5  0.0295020000000 -0.1526560000000 -0.3546120000000 1.0   3.74
Fe     5  0.4628730000000  0.5548860000000  0.2597140000000 1.0   3.71
Fe     5 -0.0371270000000 -0.5548860000000 -0.2597140000000 1.0   3.71
END
