TITL 4LiFeSO4F-200818-031930-cea370 0.1108 581.429070 -1.51288497E+004 16.0000 16.3613 32 (C2221) n - 1
REM
REM Run started: Tue, 18 Aug 2020 07:48:24 +0100 in /lustre/scratch/uccabz1/launch_tmp/launcher_2020-08-18-02-19-28-074868
REM CASTEP 20.1 from code version af48c487+ pr-geom-scf-spinfix Tue Jun 2 15:39:59 2020 +0100
REM Functional Perdew Burke Ernzerhof Relativity Koelling-Harmon Dispersion off
REM Cut-off 340.0000 eV Grid scale 1.7500 Gmax 16.5316 1/A FBSC none
REM MP grid 2 2 2 Offset 0.000 0.000 0.000 No. kpts 2 Spacing 0.07
REM Total runtime: 17262.7 s
REM Overall efficiency: 78.8333 %
REM
REM 4LiFeSO4F.cell (79c870615ff1d88195b1fe3fe805288c)
REM
REM compiler GCC version 4.9.2
REM options -cpp -iprefix /lustre/shared/ucl/apps/gcc/4.9.2/bin/../lib/gcc/x86_64-unknown-linux-gnu/4.9.2/ -mtune=corei7 -march=x86-64 -g -Og
REM COMMAND_LINE
REM seed -107954185 -626226441 1208287718 -249481192 1947391784 -1583610469 -877487674 761255383 1933857984 -134912827 1885856289 1745689549
REM
REM S 3|1.8|5|6|7|30:31:32(qc=5)
REM O 2|1.5|12|13|15|20:21(qc=5)
REM Li 1|1.3|8|9|10|10U:20(qc=5)
REM Fe 3|2.2|2.0|1.0|8|9|10|40:41:32(qc=5)
REM F 2|1.6|10|12|13|20:21(qc=5)
REM 
CELL 1.54180    7.85254    7.85254    9.44606   90.00000   90.00000   93.41943
LATT -1
SFAC Li O  F  S  Fe 
Li     1 -0.5742990000000 -0.3548410000000  0.2471330000000 1.0  -0.01
Li     1  0.5742990000000  0.3548410000000 -0.2528670000000 1.0  -0.01
Li     1  0.6451590000000  0.4257010000000  0.2528670000000 1.0  -0.01
Li     1 -0.6451590000000 -0.4257010000000 -0.2471330000000 1.0  -0.01
O      2  0.3969110000000  0.0697080000000 -0.4610930000000 1.0   0.10
O      2  0.1717130000000  0.2327210000000 -0.5541310000000 1.0   0.09
O      2  0.4651570000000  0.2845910000000 -0.6433840000000 1.0   0.01
O      2  0.3876450000000  0.3749940000000 -0.3999840000000 1.0   0.01
O      2 -0.3969110000000 -0.0697080000000  0.0389070000000 1.0   0.10
O      2 -0.1717130000000 -0.2327210000000 -0.0541310000000 1.0   0.09
O      2 -0.4651570000000 -0.2845910000000 -0.1433840000000 1.0   0.01
O      2 -0.3876450000000 -0.3749940000000  0.1000160000000 1.0   0.01
O      2  0.0697080000000  0.3969110000000 -0.0389070000000 1.0   0.10
O      2  0.2327210000000  0.1717130000000  0.0541310000000 1.0   0.09
O      2  0.2845910000000  0.4651570000000  0.1433840000000 1.0   0.01
O      2  0.3749940000000  0.3876450000000 -0.1000160000000 1.0   0.01
O      2 -0.0697080000000 -0.3969110000000  0.4610930000000 1.0   0.10
O      2 -0.2327210000000 -0.1717130000000  0.5541310000000 1.0   0.09
O      2 -0.2845910000000 -0.4651570000000  0.6433840000000 1.0   0.01
O      2 -0.3749940000000 -0.3876450000000  0.3999840000000 1.0   0.01
F      3  0.1578730000000 -0.3232400000000 -0.2363980000000 1.0   0.14
F      3 -0.1578730000000  0.3232400000000  0.2636020000000 1.0   0.14
F      3 -0.3232400000000  0.1578730000000 -0.2636020000000 1.0   0.14
F      3  0.3232400000000 -0.1578730000000  0.2363980000000 1.0   0.14
S      4  0.3606200000000  0.2470840000000 -0.5158860000000 1.0   0.01
S      4 -0.3606200000000 -0.2470840000000 -0.0158860000000 1.0   0.01
S      4  0.2470840000000  0.3606200000000  0.0158860000000 1.0   0.01
S      4 -0.2470840000000 -0.3606200000000  0.5158860000000 1.0   0.01
Fe     5  0.0020450000000  0.3851570000000 -0.5966850000000 1.0   3.64
Fe     5 -0.0020450000000 -0.3851570000000 -0.0966850000000 1.0   3.64
Fe     5  0.3851570000000  0.0020450000000  0.0966850000000 1.0   3.64
Fe     5 -0.3851570000000 -0.0020450000000  0.5966850000000 1.0   3.64
END
