TITL 4LiFeSO4F-200818-021428-21ed3f -0.0396 476.891073 -1.51297380E+004 16.0000 16.3595 32 (P42) n - 1
REM
REM Run started: Tue, 18 Aug 2020 05:01:50 +0100 in /lustre/scratch/uccabz1/launch_tmp/launcher_2020-08-18-01-14-26-514672
REM CASTEP 20.1 from code version af48c487+ pr-geom-scf-spinfix Tue Jun 2 15:39:59 2020 +0100
REM Functional Perdew Burke Ernzerhof Relativity Koelling-Harmon Dispersion off
REM Cut-off 340.0000 eV Grid scale 1.7500 Gmax 16.5316 1/A FBSC none
REM MP grid 4 2 2 Offset 0.000 0.000 0.000 No. kpts 2 Spacing 0.07
REM Total runtime: 10935.8 s
REM Overall efficiency: 76.6923 %
REM
REM 4LiFeSO4F.cell (79c870615ff1d88195b1fe3fe805288c)
REM
REM compiler GCC version 4.9.2
REM options -cpp -iprefix /lustre/shared/ucl/apps/gcc/4.9.2/bin/../lib/gcc/x86_64-unknown-linux-gnu/4.9.2/ -mtune=corei7 -march=x86-64 -g -Og
REM COMMAND_LINE
REM seed -1656807804 -1220707703 -1760755811 -712627544 -2067353457 1850999957 23519637 -1687970041 -1037350216 808944032 2004305507 -1978726137
REM
REM S 3|1.8|5|6|7|30:31:32(qc=5)
REM O 2|1.5|12|13|15|20:21(qc=5)
REM Li 1|1.3|8|9|10|10U:20(qc=5)
REM Fe 3|2.2|2.0|1.0|8|9|10|40:41:32(qc=5)
REM F 2|1.6|10|12|13|20:21(qc=5)
REM 
CELL 1.54180    4.55000   10.23773   10.23773   90.00000   90.00000   90.00000
LATT -1
SFAC Li O  F  S  Fe 
Li     1  0.5192490000000  0.1117250000000 -0.1776740000000 1.0  -0.01
Li     1  0.5192490000000 -0.1117250000000  0.1776740000000 1.0  -0.01
Li     1  0.0192490000000  0.1776740000000  0.1117250000000 1.0  -0.01
Li     1  0.0192490000000 -0.1776740000000 -0.1117250000000 1.0  -0.01
O      2  0.2650340000000  0.2686080000000 -0.1973240000000 1.0   0.07
O      2 -0.1448210000000  0.1660860000000 -0.0807430000000 1.0   0.01
O      2 -0.1932710000000  0.3904620000000 -0.1749450000000 1.0   0.07
O      2  0.1097750000000  0.3461800000000  0.0216540000000 1.0   0.01
O      2  0.2650340000000 -0.2686080000000  0.1973240000000 1.0   0.07
O      2 -0.1448210000000 -0.1660860000000  0.0807430000000 1.0   0.01
O      2 -0.1932710000000 -0.3904620000000  0.1749450000000 1.0   0.07
O      2  0.1097750000000 -0.3461800000000 -0.0216540000000 1.0   0.01
O      2  0.7650340000000  0.1973240000000  0.2686080000000 1.0   0.07
O      2  0.3551790000000  0.0807430000000  0.1660860000000 1.0   0.01
O      2  0.3067290000000  0.1749450000000  0.3904620000000 1.0   0.07
O      2  0.6097750000000 -0.0216540000000  0.3461800000000 1.0   0.01
O      2  0.7650340000000 -0.1973240000000 -0.2686080000000 1.0   0.07
O      2  0.3551790000000 -0.0807430000000 -0.1660860000000 1.0   0.01
O      2  0.3067290000000 -0.1749450000000 -0.3904620000000 1.0   0.07
O      2  0.6097750000000  0.0216540000000 -0.3461800000000 1.0   0.01
F      3 -0.3182420000000 -0.4404920000000 -0.3770220000000 1.0   0.14
F      3 -0.3182420000000  0.4404920000000  0.3770220000000 1.0   0.14
F      3  0.1817580000000  0.3770220000000 -0.4404920000000 1.0   0.14
F      3  0.1817580000000 -0.3770220000000  0.4404920000000 1.0   0.14
S      4  0.0047430000000  0.2956900000000 -0.1050390000000 1.0   0.01
S      4  0.0047430000000 -0.2956900000000  0.1050390000000 1.0   0.01
S      4  0.5047430000000  0.1050390000000  0.2956900000000 1.0   0.01
S      4  0.5047430000000 -0.1050390000000 -0.2956900000000 1.0   0.01
Fe     5  0.4809810000000  0.4068360000000 -0.3030930000000 1.0   3.70
Fe     5  0.4809810000000 -0.4068360000000  0.3030930000000 1.0   3.70
Fe     5 -0.0190190000000  0.3030930000000  0.4068360000000 1.0   3.70
Fe     5 -0.0190190000000 -0.3030930000000 -0.4068360000000 1.0   3.70
END
