TITL 4LiFeSO4F-200804-063817-fa1d62 0.0225 454.850249 -1.51311743E+004 15.9997 16.2166 32 (P2) n - 1
REM
REM Run started: Tue, 04 Aug 2020 19:53:29 +0100 in /lustre/scratch/uccabz1/launch_tmp/launcher_2020-08-04-05-38-11-854777
REM CASTEP 20.1 from code version af48c487+ pr-geom-scf-spinfix Tue Jun 2 15:39:59 2020 +0100
REM Functional Perdew Burke Ernzerhof Relativity Koelling-Harmon Dispersion off
REM Cut-off 340.0000 eV Grid scale 1.7500 Gmax 16.5316 1/A FBSC none
REM MP grid 3 2 2 Offset 0.000 0.000 0.000 No. kpts 4 Spacing 0.07
REM Total runtime: 48054.7 s
REM Overall efficiency: 71.1 %
REM
REM 4LiFeSO4F.cell (79c870615ff1d88195b1fe3fe805288c)
REM
REM compiler GCC version 4.9.2
REM options -cpp -iprefix /lustre/shared/ucl/apps/gcc/4.9.2/bin/../lib/gcc/x86_64-unknown-linux-gnu/4.9.2/ -mtune=corei7 -march=x86-64 -g -Og
REM COMMAND_LINE
REM seed -497107888 -787485441 -340375622 -1356621453 1157527915 -1304379268 -1600580837 -1254612746 -1727527263 1872390393 -1881697920 970821405
REM
REM S 3|1.8|5|6|7|30:31:32(qc=5)
REM O 2|1.5|12|13|15|20:21(qc=5)
REM Li 1|1.3|8|9|10|10U:20(qc=5)
REM Fe 3|2.2|2.0|1.0|8|9|10|40:41:32(qc=5)
REM F 2|1.6|10|12|13|20:21(qc=5)
REM 
CELL 1.54180    6.61324    9.52763    8.91036  125.88786   90.00000   90.00000
LATT -1
SFAC Li O  F  S  Fe 
Li     1  0.3469180000000 -0.1632180000000  0.1688320000000 1.0  -0.02
Li     1  0.3469180000000  0.1632180000000 -0.1688320000000 1.0  -0.02
Li     1  0.0772970000000  0.3701930000000  0.1863760000000 1.0  -0.01
Li     1  0.0772970000000 -0.3701930000000 -0.1863760000000 1.0  -0.01
O      2  0.1164440000000 -0.2139550000000 -0.6989570000000 1.0   0.04
O      2  0.2996350000000 -0.1292590000000 -0.4166910000000 1.0   0.04
O      2  0.1163570000000 -0.4059480000000 -0.5964290000000 1.0   0.01
O      2 -0.0710290000000 -0.1308820000000 -0.4183190000000 1.0   0.06
O      2  0.1164440000000  0.2139550000000  0.6989570000000 1.0   0.04
O      2  0.2996350000000  0.1292590000000  0.4166910000000 1.0   0.04
O      2  0.1163570000000  0.4059480000000  0.5964290000000 1.0   0.01
O      2 -0.0710290000000  0.1308820000000  0.4183190000000 1.0   0.06
O      2 -0.3640780000000  0.5657430000000  0.3603620000000 1.0   0.07
O      2 -0.4134430000000  0.2566780000000  0.2237690000000 1.0   0.06
O      2 -0.1922790000000  0.3503860000000  0.0760640000000 1.0   0.05
O      2 -0.5624300000000  0.3807610000000  0.0734440000000 1.0   0.02
O      2 -0.3640780000000 -0.5657430000000 -0.3603620000000 1.0   0.07
O      2 -0.4134430000000 -0.2566780000000 -0.2237690000000 1.0   0.06
O      2 -0.1922790000000 -0.3503860000000 -0.0760640000000 1.0   0.05
O      2 -0.5624300000000 -0.3807610000000 -0.0734440000000 1.0   0.02
F      3 -0.3840630000000  0.0635910000000 -0.2603900000000 1.0   0.10
F      3 -0.3840630000000 -0.0635910000000  0.2603900000000 1.0   0.10
F      3  0.1298020000000 -0.1543170000000  0.0349820000000 1.0   0.10
F      3  0.1298020000000  0.1543170000000 -0.0349820000000 1.0   0.10
S      4  0.1168870000000 -0.2246720000000 -0.5352670000000 1.0   0.01
S      4  0.1168870000000  0.2246720000000  0.5352670000000 1.0   0.01
S      4 -0.3892850000000  0.3887640000000  0.1829860000000 1.0   0.02
S      4 -0.3892850000000 -0.3887640000000 -0.1829860000000 1.0   0.02
Fe     5 -0.0968180000000  0.1379490000000 -0.1840710000000 1.0   3.73
Fe     5 -0.0968180000000 -0.1379490000000  0.1840710000000 1.0   3.73
Fe     5 -0.4018880000000  0.2026530000000  0.4098950000000 1.0   3.72
Fe     5 -0.4018880000000 -0.2026530000000 -0.4098950000000 1.0   3.72
END
