TITL 4LiFeSO4F-200818-015803-988b52 -0.0032 427.005030 -1.51312658E+004 16.0094 16.2409 32 (P21) n - 1
REM
REM Run started: Tue, 18 Aug 2020 07:13:18 +0100 in /lustre/scratch/uccabz1/launch_tmp/launcher_2020-08-18-00-57-59-832579
REM CASTEP 20.1 from code version af48c487+ pr-geom-scf-spinfix Tue Jun 2 15:39:59 2020 +0100
REM Functional Perdew Burke Ernzerhof Relativity Koelling-Harmon Dispersion off
REM Cut-off 340.0000 eV Grid scale 1.7500 Gmax 16.5316 1/A FBSC none
REM MP grid 3 2 2 Offset 0.000 0.000 0.000 No. kpts 3 Spacing 0.07
REM Total runtime: 18996.8 s
REM Overall efficiency: 72.5 %
REM
REM 4LiFeSO4F.cell (79c870615ff1d88195b1fe3fe805288c)
REM
REM compiler GCC version 4.9.2
REM options -cpp -iprefix /lustre/shared/ucl/apps/gcc/4.9.2/bin/../lib/gcc/x86_64-unknown-linux-gnu/4.9.2/ -mtune=corei7 -march=x86-64 -g -Og
REM COMMAND_LINE
REM seed 1200113803 867858700 -487188683 -371954902 -168647687 -46657032 -1798895886 1084322563 931355912 735020310 -1082271994 -1857474536
REM
REM S 3|1.8|5|6|7|30:31:32(qc=5)
REM O 2|1.5|12|13|15|20:21(qc=5)
REM Li 1|1.3|8|9|10|10U:20(qc=5)
REM Fe 3|2.2|2.0|1.0|8|9|10|40:41:32(qc=5)
REM F 2|1.6|10|12|13|20:21(qc=5)
REM 
CELL 1.54180    6.03086    7.70353    9.23212   90.00000   95.40772   90.00000
LATT -1
SFAC Li O  F  S  Fe 
Li     1 -0.4215440000000 -0.4651700000000 -0.1908730000000 1.0  -0.02
Li     1  0.4215440000000  0.0348300000000  0.1908730000000 1.0  -0.02
Li     1  0.0226820000000  0.4621190000000  0.1911590000000 1.0  -0.02
Li     1 -0.0226820000000 -0.0378810000000 -0.1911590000000 1.0  -0.02
O      2 -0.0475240000000  0.3331210000000 -0.0030960000000 1.0   0.04
O      2 -0.2589960000000  0.0979540000000 -0.1375920000000 1.0   0.00
O      2 -0.4568350000000  0.3509250000000 -0.0492410000000 1.0   0.01
O      2 -0.2847530000000  0.1391770000000  0.1255990000000 1.0   0.05
O      2  0.0475240000000 -0.1668790000000  0.0030960000000 1.0   0.04
O      2  0.2589960000000 -0.4020460000000  0.1375920000000 1.0   0.00
O      2  0.4568350000000 -0.1490750000000  0.0492410000000 1.0   0.01
O      2  0.2847530000000 -0.3608230000000 -0.1255990000000 1.0   0.05
O      2  0.5404620000000 -0.4502430000000  0.4388050000000 1.0   0.06
O      2  0.1999550000000 -0.6269640000000  0.4041640000000 1.0   0.06
O      2  0.1806800000000 -0.3305970000000  0.4996170000000 1.0   0.06
O      2  0.3687390000000 -0.5594650000000  0.6513370000000 1.0   0.03
O      2 -0.5404620000000  0.0497570000000 -0.4388050000000 1.0   0.06
O      2 -0.1999550000000 -0.1269640000000 -0.4041640000000 1.0   0.06
O      2 -0.1806800000000  0.1694030000000 -0.4996170000000 1.0   0.06
O      2 -0.3687390000000 -0.0594650000000 -0.6513370000000 1.0   0.03
F      3 -0.1379310000000 -0.3429110000000  0.2597620000000 1.0   0.10
F      3  0.1379310000000  0.1570890000000 -0.2597620000000 1.0   0.10
F      3 -0.1473620000000 -0.4656170000000 -0.2847120000000 1.0   0.09
F      3  0.1473620000000  0.0343830000000  0.2847120000000 1.0   0.09
S      4 -0.2668360000000  0.2280420000000 -0.0212680000000 1.0   0.01
S      4  0.2668360000000 -0.2719580000000  0.0212680000000 1.0   0.01
S      4  0.3257330000000 -0.4900380000000  0.4991290000000 1.0   0.02
S      4 -0.3257330000000  0.0099620000000 -0.4991290000000 1.0   0.02
Fe     5 -0.1520480000000 -0.3613950000000  0.4900030000000 1.0   3.72
Fe     5  0.1520480000000  0.1386050000000 -0.4900030000000 1.0   3.72
Fe     5 -0.1250740000000 -0.0968600000000  0.1869180000000 1.0   3.77
Fe     5  0.1250740000000  0.4031400000000 -0.1869180000000 1.0   3.77
END
