TITL 4LiFeSO4F-200818-045901-99d7c6 -0.0006 493.714758 -1.51310447E+004 16.0000 16.2897 32 (P-1) n - 1
REM
REM Run started: Tue, 18 Aug 2020 18:40:31 +0100 in /lustre/scratch/uccabz1/launch_tmp/launcher_2020-08-18-03-58-45-537315
REM CASTEP 20.1 from code version af48c487+ pr-geom-scf-spinfix Tue Jun 2 15:39:59 2020 +0100
REM Functional Perdew Burke Ernzerhof Relativity Koelling-Harmon Dispersion off
REM Cut-off 340.0000 eV Grid scale 1.7500 Gmax 16.5316 1/A FBSC none
REM MP grid 3 2 2 Offset 0.000 0.000 0.000 No. kpts 6 Spacing 0.07
REM Total runtime: 51771.3 s
REM Overall efficiency: 87.9 %
REM
REM 4LiFeSO4F.cell (79c870615ff1d88195b1fe3fe805288c)
REM
REM compiler GCC version 4.9.2
REM options -cpp -iprefix /lustre/shared/ucl/apps/gcc/4.9.2/bin/../lib/gcc/x86_64-unknown-linux-gnu/4.9.2/ -mtune=corei7 -march=x86-64 -g -Og
REM COMMAND_LINE
REM seed 1167471937 490708014 1354515971 366052683 -2012188836 -622900477 237135805 -311700859 1435620942 -44701110 85570987 1986240998
REM
REM S 3|1.8|5|6|7|30:31:32(qc=5)
REM O 2|1.5|12|13|15|20:21(qc=5)
REM Li 1|1.3|8|9|10|10U:20(qc=5)
REM Fe 3|2.2|2.0|1.0|8|9|10|40:41:32(qc=5)
REM F 2|1.6|10|12|13|20:21(qc=5)
REM 
CELL 1.54180    7.71685    8.86222    8.84288  106.85403  101.42947  113.86457
LATT -1
SFAC Li O  F  S  Fe 
Li     1  0.2428490000000 -0.0158160000000 -0.1183910000000 1.0  -0.02
Li     1 -0.2428490000000  0.0158160000000  0.1183910000000 1.0  -0.02
Li     1 -0.2459340000000  0.1276500000000 -0.5227240000000 1.0  -0.01
Li     1  0.2459340000000 -0.1276500000000  0.5227240000000 1.0  -0.01
O      2  0.3145960000000  0.3169000000000 -0.5165490000000 1.0   0.07
O      2  0.6498810000000  0.4364940000000 -0.3059280000000 1.0   0.10
O      2  0.5418610000000  0.1978980000000 -0.5906020000000 1.0   0.01
O      2  0.3919720000000  0.1367960000000 -0.3765420000000 1.0   0.05
O      2 -0.3145960000000 -0.3169000000000  0.5165490000000 1.0   0.07
O      2 -0.6498810000000 -0.4364940000000  0.3059280000000 1.0   0.10
O      2 -0.5418610000000 -0.1978980000000  0.5906020000000 1.0   0.01
O      2 -0.3919720000000 -0.1367960000000  0.3765420000000 1.0   0.05
O      2  0.0371370000000 -0.2375880000000 -0.0601610000000 1.0   0.06
O      2  0.1656740000000 -0.2205320000000  0.2244440000000 1.0   0.07
O      2 -0.1958190000000 -0.4255450000000  0.0504490000000 1.0   0.07
O      2 -0.0621550000000 -0.0957040000000  0.1668180000000 1.0   0.02
O      2 -0.0371370000000  0.2375880000000  0.0601610000000 1.0   0.06
O      2 -0.1656740000000  0.2205320000000 -0.2244440000000 1.0   0.07
O      2  0.1958190000000  0.4255450000000 -0.0504490000000 1.0   0.07
O      2  0.0621550000000  0.0957040000000 -0.1668180000000 1.0   0.02
F      3 -0.5065280000000 -0.1584290000000  0.0378800000000 1.0   0.13
F      3  0.5065280000000  0.1584290000000 -0.0378800000000 1.0   0.13
F      3  0.1068320000000 -0.2050720000000 -0.3425110000000 1.0   0.08
F      3 -0.1068320000000  0.2050720000000  0.3425110000000 1.0   0.08
S      4  0.4686270000000  0.2648780000000 -0.4585550000000 1.0   0.02
S      4 -0.4686270000000 -0.2648780000000  0.4585550000000 1.0   0.02
S      4 -0.0173110000000 -0.2418540000000  0.0969150000000 1.0   0.01
S      4  0.0173110000000  0.2418540000000 -0.0969150000000 1.0   0.01
Fe     5  0.1404080000000  0.3401280000000  0.3079220000000 1.0   3.63
Fe     5 -0.1404080000000 -0.3401280000000 -0.3079220000000 1.0   3.63
Fe     5  0.3400560000000 -0.3189380000000  0.1191870000000 1.0   3.72
Fe     5 -0.3400560000000  0.3189380000000 -0.1191870000000 1.0   3.72
END
