TITL 4LiFeSO4F-200818-095506-cd34e0 -0.0468 390.710456 -1.51305671E+004 16.0000 16.1942 32 (P2) n - 1
REM
REM Run started: Tue, 18 Aug 2020 20:08:36 +0100 in /scratch/scratch/uccabz1/launch_tmp/launcher_2020-08-18-08-55-04-347011
REM CASTEP 19.11| from code version Version unavailable
REM Functional Perdew Burke Ernzerhof Relativity Koelling-Harmon Dispersion off
REM Cut-off 340.0000 eV Grid scale 1.7500 Gmax 16.5316 1/A FBSC none
REM MP grid 4 2 2 Offset 0.000 0.000 0.000 No. kpts 4 Spacing 0.07
REM Total runtime: 38666.7 s
REM Overall efficiency: 76.25 %
REM
REM 4LiFeSO4F.cell (79c870615ff1d88195b1fe3fe805288c)
REM
REM compiler GCC version 4.9.2
REM options -cpp -iprefix /scratch/UCL/applications/gcc/4.9.2/bin/../lib/gcc/x86_64-unknown-linux-gnu/4.9.2/ -mtune=corei7 -march=x86-64 -g -O2
REM COMMAND_LINE
REM seed -670876197 -1696519255 1377667568 1235872666 1788731319 1978784040 -1262681252 -1324756452 -559800304 -1146485680 1323026796 -394275672
REM
REM S 3|1.8|5|6|7|30:31:32(qc=5)
REM O 2|1.5|12|13|15|20:21(qc=5)
REM Li 1|1.3|8|9|10|10U:20(qc=5)
REM Fe 3|2.2|2.0|1.0|8|9|10|40:41:32(qc=5)
REM F 2|1.6|10|12|13|20:21(qc=5)
REM 
CELL 1.54180    4.32597    9.12285    9.90355   91.50276   90.00000   90.00000
LATT -1
SFAC Li O  F  S  Fe 
Li     1 -0.4366400000000  0.5004340000000 -0.3269370000000 1.0  -0.04
Li     1 -0.4366400000000 -0.5004340000000  0.3269370000000 1.0  -0.04
Li     1  0.3513190000000 -0.0917940000000 -0.1782050000000 1.0  -0.01
Li     1  0.3513190000000  0.0917940000000  0.1782050000000 1.0  -0.01
O      2  0.0397590000000 -0.2382870000000 -0.2522730000000 1.0   0.04
O      2 -0.3830800000000 -0.3132640000000 -0.4107720000000 1.0   0.01
O      2  0.0314080000000 -0.1558620000000 -0.4873600000000 1.0   0.09
O      2 -0.3403740000000 -0.0561740000000 -0.3217600000000 1.0   0.03
O      2  0.0397590000000  0.2382870000000  0.2522730000000 1.0   0.04
O      2 -0.3830800000000  0.3132640000000  0.4107720000000 1.0   0.01
O      2  0.0314080000000  0.1558620000000  0.4873600000000 1.0   0.09
O      2 -0.3403740000000  0.0561740000000  0.3217600000000 1.0   0.03
O      2  0.1225030000000 -0.1060410000000  0.1758580000000 1.0   0.06
O      2  0.5396030000000 -0.2783210000000  0.2157760000000 1.0   0.05
O      2  0.4951250000000 -0.1557560000000 -0.0049900000000 1.0   0.02
O      2  0.1261930000000 -0.3485900000000  0.0559780000000 1.0   0.07
O      2  0.1225030000000  0.1060410000000 -0.1758580000000 1.0   0.06
O      2  0.5396030000000  0.2783210000000 -0.2157760000000 1.0   0.05
O      2  0.4951250000000  0.1557560000000  0.0049900000000 1.0   0.02
O      2  0.1261930000000  0.3485900000000 -0.0559780000000 1.0   0.07
F      3 -0.4438360000000  0.4297160000000  0.1510120000000 1.0   0.08
F      3 -0.4438360000000 -0.4297160000000 -0.1510120000000 1.0   0.08
F      3  0.0068350000000 -0.4344350000000  0.3193010000000 1.0   0.08
F      3  0.0068350000000  0.4344350000000 -0.3193010000000 1.0   0.08
S      4 -0.1693230000000 -0.1938540000000 -0.3671050000000 1.0   0.01
S      4 -0.1693230000000  0.1938540000000  0.3671050000000 1.0   0.01
S      4  0.3294480000000 -0.2221510000000  0.1072240000000 1.0   0.01
S      4  0.3294480000000  0.2221510000000 -0.1072240000000 1.0   0.01
Fe     5 -0.1313630000000  0.1839450000000 -0.3327600000000 1.0   3.72
Fe     5 -0.1313630000000 -0.1839450000000  0.3327600000000 1.0   3.72
Fe     5  0.0570270000000  0.4413120000000  0.1414130000000 1.0   3.78
Fe     5  0.0570270000000 -0.4413120000000 -0.1414130000000 1.0   3.78
END
