TITL 4LiFeSO4F-200817-225717-d6835a 0.0069 616.403679 -1.51275719E+004 16.0000 16.4581 32 (I222) n - 1
REM
REM Run started: Tue, 18 Aug 2020 08:40:57 +0100 in /lustre/scratch/uccabz1/launch_tmp/launcher_2020-08-17-23-16-25-199886
REM CASTEP 20.1 from code version af48c487+ pr-geom-scf-spinfix Tue Jun 2 15:39:59 2020 +0100
REM Functional Perdew Burke Ernzerhof Relativity Koelling-Harmon Dispersion off
REM Cut-off 340.0000 eV Grid scale 1.7500 Gmax 16.5316 1/A FBSC none
REM MP grid 2 2 3 Offset 0.000 0.000 0.000 No. kpts 5 Spacing 0.07
REM Total runtime: 32383.2 s
REM Overall efficiency: 71.9 %
REM
REM
REM
REM compiler GCC version 4.9.2
REM options -cpp -iprefix /scratch/UCL/applications/gcc/4.9.2/bin/../lib/gcc/x86_64-unknown-linux-gnu/4.9.2/ -mtune=corei7 -march=x86-64 -g -O2
REM COMMAND_LINE
REM seed -502423929 -1486098752 -482857027 1409633026 1326362103 376943302 -149391772 -710310831 1151241129 753585157 779357148 1284840827
REM
REM S 3|1.8|5|6|7|30:31:32(qc=5)
REM O 2|1.5|12|13|15|20:21(qc=5)
REM Li 1|1.3|8|9|10|10U:20(qc=5)
REM Fe 3|2.2|2.0|1.0|8|9|10|40:41:32(qc=5)
REM F 2|1.6|10|12|13|20:21(qc=5)
REM 
CELL 1.54180    9.65015    9.68126    9.49969  120.63432  120.52534   90.00000
LATT -1
SFAC Li O  F  S  Fe 
Li     1 -0.0618880000000  0.1075530000000  0.3027600000000 1.0  -0.01
Li     1 -0.3646490000000 -0.1075550000000 -0.3027620000000 1.0  -0.01
Li     1  0.3646480000000  0.1952060000000  0.3027600000000 1.0  -0.01
Li     1  0.0618870000000 -0.1952080000000 -0.3027620000000 1.0  -0.01
O      2  0.0941930000000 -0.2372690000000 -0.0948710000000 1.0   0.02
O      2  0.3974600000000 -0.0406320000000  0.1665260000000 1.0   0.07
O      2  0.2818170000000 -0.2746410000000 -0.1984940000000 1.0   0.06
O      2  0.3470470000000 -0.3337720000000  0.0467780000000 1.0   0.08
O      2  0.1890630000000  0.2372670000000  0.0948690000000 1.0   0.02
O      2  0.2309330000000  0.0406300000000 -0.1665280000000 1.0   0.07
O      2  0.4803110000000  0.2746390000000  0.1984920000000 1.0   0.06
O      2  0.3002680000000  0.3337700000000 -0.0467800000000 1.0   0.08
O      2 -0.1890640000000  0.1423970000000 -0.0948710000000 1.0   0.02
O      2 -0.2309340000000  0.2071570000000  0.1665260000000 1.0   0.07
O      2 -0.4803120000000  0.0761460000000 -0.1984940000000 1.0   0.06
O      2 -0.3002690000000  0.3805500000000  0.0467780000000 1.0   0.08
O      2 -0.0941940000000 -0.1423990000000  0.0948690000000 1.0   0.02
O      2 -0.3974610000000 -0.2071590000000 -0.1665280000000 1.0   0.07
O      2 -0.2818180000000 -0.0761480000000  0.1984920000000 1.0   0.06
O      2 -0.3470480000000 -0.3805520000000 -0.0467800000000 1.0   0.08
F      3  0.6258310000000 -0.1525530000000  0.4837410000000 1.0   0.11
F      3  0.1420890000000  0.1525510000000 -0.4837430000000 1.0   0.11
F      3 -0.1420900000000 -0.3637070000000  0.4837410000000 1.0   0.11
F      3 -0.6258320000000  0.3637050000000 -0.4837430000000 1.0   0.11
S      4  0.2727960000000 -0.2243530000000 -0.0198460000000 1.0   0.00
S      4  0.2926410000000  0.2243510000000  0.0198440000000 1.0   0.00
S      4 -0.2926420000000  0.2045060000000 -0.0198460000000 1.0   0.00
S      4 -0.2727970000000 -0.2045080000000  0.0198440000000 1.0   0.00
Fe     5 -0.4055420000000 -0.1365050000000  0.2836310000000 1.0   3.67
Fe     5  0.3108260000000  0.1365030000000 -0.2836330000000 1.0   3.67
Fe     5 -0.3108270000000  0.4201350000000  0.2836310000000 1.0   3.67
Fe     5  0.4055410000000 -0.4201370000000 -0.2836330000000 1.0   3.67
END
