TITL 4LiFeSO4F-200804-064650-48f306 -0.0156 457.829245 -1.51306077E+004 15.9995 16.1773 32 (Pca21) n - 1
REM
REM Run started: Tue, 04 Aug 2020 08:04:45 +0100 in /lustre/scratch/uccabz1/launch_tmp/launcher_2020-08-04-05-46-47-358609
REM CASTEP 20.1 from code version af48c487+ pr-geom-scf-spinfix Tue Jun 2 15:39:59 2020 +0100
REM Functional Perdew Burke Ernzerhof Relativity Koelling-Harmon Dispersion off
REM Cut-off 340.0000 eV Grid scale 1.7500 Gmax 16.5316 1/A FBSC none
REM MP grid 2 3 2 Offset 0.000 0.000 0.000 No. kpts 2 Spacing 0.07
REM Total runtime: 4717.62 s
REM Overall efficiency: 72.5556 %
REM
REM 4LiFeSO4F.cell (79c870615ff1d88195b1fe3fe805288c)
REM
REM compiler GCC version 4.9.2
REM options -cpp -iprefix /lustre/shared/ucl/apps/gcc/4.9.2/bin/../lib/gcc/x86_64-unknown-linux-gnu/4.9.2/ -mtune=corei7 -march=x86-64 -g -Og
REM COMMAND_LINE
REM seed 1964029299 1473271733 469894231 -637428138 1876289760 -453734566 1989811812 1209010467 109295630 -535046471 -26448592 1794414469
REM
REM S 3|1.8|5|6|7|30:31:32(qc=5)
REM O 2|1.5|12|13|15|20:21(qc=5)
REM Li 1|1.3|8|9|10|10U:20(qc=5)
REM Fe 3|2.2|2.0|1.0|8|9|10|40:41:32(qc=5)
REM F 2|1.6|10|12|13|20:21(qc=5)
REM 
CELL 1.54180    8.31443    6.73717    8.17322   90.00000   90.00000   90.00000
LATT -1
SFAC Li O  F  S  Fe 
Li     1  0.2152040000000 -0.1245560000000  0.3822160000000 1.0  -0.01
Li     1 -0.2152040000000  0.3754440000000 -0.3822160000000 1.0  -0.01
Li     1 -0.2847960000000 -0.1245560000000 -0.3822160000000 1.0  -0.01
Li     1  0.2847960000000  0.3754440000000  0.3822160000000 1.0  -0.01
O      2 -0.0102640000000 -0.6236840000000 -0.2509950000000 1.0   0.06
O      2 -0.0549260000000 -0.4536300000000  0.0099770000000 1.0   0.06
O      2 -0.1694440000000 -0.3229130000000 -0.2472490000000 1.0   0.02
O      2  0.1224300000000 -0.3003830000000 -0.1938510000000 1.0   0.06
O      2  0.0102640000000 -0.1236840000000  0.2509950000000 1.0   0.06
O      2  0.0549260000000  0.0463700000000 -0.0099770000000 1.0   0.06
O      2  0.1694440000000  0.1770870000000  0.2472490000000 1.0   0.02
O      2 -0.1224300000000  0.1996170000000  0.1938510000000 1.0   0.06
O      2  0.4897360000000 -0.6236840000000  0.2509950000000 1.0   0.06
O      2  0.4450740000000 -0.4536300000000 -0.0099770000000 1.0   0.06
O      2  0.3305560000000 -0.3229130000000  0.2472490000000 1.0   0.02
O      2  0.6224300000000 -0.3003830000000  0.1938510000000 1.0   0.06
O      2 -0.4897360000000 -0.1236840000000 -0.2509950000000 1.0   0.06
O      2 -0.4450740000000  0.0463700000000  0.0099770000000 1.0   0.06
O      2 -0.3305560000000  0.1770870000000 -0.2472490000000 1.0   0.02
O      2 -0.6224300000000  0.1996170000000 -0.1938510000000 1.0   0.06
F      3 -0.1734140000000  0.5273320000000  0.4336540000000 1.0   0.10
F      3  0.1734140000000  0.0273320000000 -0.4336540000000 1.0   0.10
F      3  0.3265860000000  0.5273320000000 -0.4336540000000 1.0   0.10
F      3 -0.3265860000000  0.0273320000000  0.4336540000000 1.0   0.10
S      4 -0.0280910000000 -0.4196550000000 -0.1693570000000 1.0   0.02
S      4  0.0280910000000  0.0803450000000  0.1693570000000 1.0   0.02
S      4  0.4719090000000 -0.4196550000000  0.1693570000000 1.0   0.02
S      4 -0.4719090000000  0.0803450000000 -0.1693570000000 1.0   0.02
Fe     5 -0.3595370000000  0.1396470000000  0.2222840000000 1.0   3.70
Fe     5  0.3595370000000 -0.3603530000000 -0.2222840000000 1.0   3.70
Fe     5  0.1404630000000  0.1396470000000 -0.2222840000000 1.0   3.70
Fe     5 -0.1404630000000 -0.3603530000000  0.2222840000000 1.0   3.70
END
