TITL 4LiFeSO4F-200804-055027-e9ee79 -0.0244 407.064640 -1.51310910E+004 16.0000 16.2080 32 (Pc) n - 1
REM
REM Run started: Tue, 04 Aug 2020 11:26:25 +0100 in /lustre/scratch/uccabz1/launch_tmp/launcher_2020-08-04-04-50-19-893552
REM CASTEP 20.1 from code version af48c487+ pr-geom-scf-spinfix Tue Jun 2 15:39:59 2020 +0100
REM Functional Perdew Burke Ernzerhof Relativity Koelling-Harmon Dispersion off
REM Cut-off 340.0000 eV Grid scale 1.7500 Gmax 16.5316 1/A FBSC none
REM MP grid 3 2 2 Offset 0.000 0.000 0.000 No. kpts 3 Spacing 0.07
REM Total runtime: 22509.3 s
REM Overall efficiency: 77.5833 %
REM
REM 4LiFeSO4F.cell (79c870615ff1d88195b1fe3fe805288c)
REM
REM compiler GCC version 4.9.2
REM options -cpp -iprefix /lustre/shared/ucl/apps/gcc/4.9.2/bin/../lib/gcc/x86_64-unknown-linux-gnu/4.9.2/ -mtune=corei7 -march=x86-64 -g -Og
REM COMMAND_LINE
REM seed -654775805 970212772 317264443 -1407009170 -1404818997 -217700134 1645470896 781765624 -1638696650 -23956738 -70735747 -1677269743
REM
REM S 3|1.8|5|6|7|30:31:32(qc=5)
REM O 2|1.5|12|13|15|20:21(qc=5)
REM Li 1|1.3|8|9|10|10U:20(qc=5)
REM Fe 3|2.2|2.0|1.0|8|9|10|40:41:32(qc=5)
REM F 2|1.6|10|12|13|20:21(qc=5)
REM 
CELL 1.54180    4.79028    9.35619    9.08259   90.00000   90.31641   90.00000
LATT -1
SFAC Li O  F  S  Fe 
Li     1  0.4224740000000  0.1111200000000 -0.4089240000000 1.0  -0.02
Li     1 -0.0775260000000 -0.1111200000000  0.0910760000000 1.0  -0.02
Li     1  0.1969610000000 -0.3893640000000  0.5105420000000 1.0  -0.02
Li     1 -0.3030390000000  0.3893640000000  0.0105420000000 1.0  -0.02
O      2  0.6669100000000  0.0171070000000 -0.0813700000000 1.0   0.04
O      2  0.2253400000000  0.0510430000000 -0.2144790000000 1.0   0.05
O      2  0.4154480000000  0.2499070000000 -0.0686770000000 1.0   0.02
O      2  0.2351300000000  0.0391250000000  0.0603430000000 1.0   0.05
O      2  0.1669100000000 -0.0171070000000  0.4186300000000 1.0   0.04
O      2 -0.2746600000000 -0.0510430000000  0.2855210000000 1.0   0.05
O      2 -0.0845520000000 -0.2499070000000  0.4313230000000 1.0   0.02
O      2 -0.2648700000000 -0.0391250000000  0.5603430000000 1.0   0.05
O      2  0.3955360000000 -0.4488360000000  0.3073280000000 1.0   0.05
O      2 -0.0431690000000 -0.4895120000000  0.1722600000000 1.0   0.04
O      2  0.3879630000000 -0.4598480000000  0.0317640000000 1.0   0.05
O      2  0.1963860000000 -0.2530990000000  0.1614840000000 1.0   0.01
O      2 -0.1044640000000  0.4488360000000 -0.1926720000000 1.0   0.05
O      2 -0.5431690000000  0.4895120000000 -0.3277400000000 1.0   0.04
O      2 -0.1120370000000  0.4598480000000 -0.4682360000000 1.0   0.05
O      2 -0.3036140000000  0.2530990000000 -0.3385160000000 1.0   0.01
F      3  0.3983480000000  0.2416360000000  0.4093330000000 1.0   0.11
F      3 -0.1016520000000 -0.2416360000000 -0.0906670000000 1.0   0.11
F      3  0.2148140000000 -0.2566230000000 -0.3154890000000 1.0   0.11
F      3 -0.2851860000000  0.2566230000000  0.1845110000000 1.0   0.11
S      4  0.3888150000000  0.0935920000000 -0.0767320000000 1.0   0.01
S      4 -0.1111850000000 -0.0935920000000  0.4232680000000 1.0   0.01
S      4  0.2303620000000 -0.4090270000000  0.1700620000000 1.0   0.01
S      4 -0.2696380000000  0.4090270000000 -0.3299380000000 1.0   0.01
Fe     5 -0.2894850000000  0.4033600000000  0.3366240000000 1.0   3.74
Fe     5  0.2105150000000 -0.4033600000000 -0.1633760000000 1.0   3.74
Fe     5  0.4035780000000  0.0935160000000  0.2599490000000 1.0   3.74
Fe     5 -0.0964220000000 -0.0935160000000 -0.2400510000000 1.0   3.74
END
