TITL 4LiFeSO4F-200804-063736-7c710e 0.0481 532.206017 -1.51307865E+004 16.0000 16.4808 32 (P-4) n - 1
REM
REM Run started: Tue, 04 Aug 2020 08:52:13 +0100 in /lustre/scratch/uccabz1/launch_tmp/launcher_2020-08-04-05-37-33-503456
REM CASTEP 20.1 from code version af48c487+ pr-geom-scf-spinfix Tue Jun 2 15:39:59 2020 +0100
REM Functional Perdew Burke Ernzerhof Relativity Koelling-Harmon Dispersion off
REM Cut-off 340.0000 eV Grid scale 1.7500 Gmax 16.5316 1/A FBSC none
REM MP grid 3 2 2 Offset 0.000 0.000 0.000 No. kpts 2 Spacing 0.07
REM Total runtime: 8118.8 s
REM Overall efficiency: 73.4167 %
REM
REM 4LiFeSO4F.cell (79c870615ff1d88195b1fe3fe805288c)
REM
REM compiler GCC version 4.9.2
REM options -cpp -iprefix /lustre/shared/ucl/apps/gcc/4.9.2/bin/../lib/gcc/x86_64-unknown-linux-gnu/4.9.2/ -mtune=corei7 -march=x86-64 -g -Og
REM COMMAND_LINE
REM seed 23060930 1661792560 -1103925449 -1638989882 -1742474127 1083816936 -1579319095 -956157194 1575516200 1676701528 -2034585363 58439498
REM
REM S 3|1.8|5|6|7|30:31:32(qc=5)
REM O 2|1.5|12|13|15|20:21(qc=5)
REM Li 1|1.3|8|9|10|10U:20(qc=5)
REM Fe 3|2.2|2.0|1.0|8|9|10|40:41:32(qc=5)
REM F 2|1.6|10|12|13|20:21(qc=5)
REM 
CELL 1.54180    5.10645   10.20893   10.20893   90.00000   90.00000   90.00000
LATT -1
SFAC Li O  F  S  Fe 
Li     1  0.0781740000000  0.0991180000000 -0.2083230000000 1.0  -0.01
Li     1  0.0781740000000 -0.0991180000000  0.2083230000000 1.0  -0.01
Li     1 -0.0781740000000 -0.2083230000000 -0.0991180000000 1.0  -0.01
Li     1 -0.0781740000000  0.2083230000000  0.0991180000000 1.0  -0.01
O      2 -0.2053450000000 -0.0443230000000 -0.1728580000000 1.0   0.02
O      2 -0.2865830000000 -0.1139370000000 -0.3963710000000 1.0   0.08
O      2 -0.2437460000000  0.1222520000000 -0.3366150000000 1.0   0.07
O      2 -0.6415690000000 -0.0032140000000 -0.2794120000000 1.0   0.01
O      2 -0.2053450000000  0.0443230000000  0.1728580000000 1.0   0.02
O      2 -0.2865830000000  0.1139370000000  0.3963710000000 1.0   0.08
O      2 -0.2437460000000 -0.1222520000000  0.3366150000000 1.0   0.07
O      2 -0.6415690000000  0.0032140000000  0.2794120000000 1.0   0.01
O      2  0.2053450000000 -0.1728580000000  0.0443230000000 1.0   0.02
O      2  0.2865830000000 -0.3963710000000  0.1139370000000 1.0   0.08
O      2  0.2437460000000 -0.3366150000000 -0.1222520000000 1.0   0.07
O      2  0.6415690000000 -0.2794120000000  0.0032140000000 1.0   0.01
O      2  0.2053450000000  0.1728580000000 -0.0443230000000 1.0   0.02
O      2  0.2865830000000  0.3963710000000 -0.1139370000000 1.0   0.08
O      2  0.2437460000000  0.3366150000000  0.1222520000000 1.0   0.07
O      2  0.6415690000000  0.2794120000000 -0.0032140000000 1.0   0.01
F      3 -0.4148460000000 -0.6084470000000 -0.3514900000000 1.0   0.13
F      3 -0.4148460000000  0.6084470000000  0.3514900000000 1.0   0.13
F      3  0.4148460000000 -0.3514900000000  0.6084470000000 1.0   0.13
F      3  0.4148460000000  0.3514900000000 -0.6084470000000 1.0   0.13
S      4 -0.3551230000000 -0.0119420000000 -0.2946390000000 1.0   0.01
S      4 -0.3551230000000  0.0119420000000  0.2946390000000 1.0   0.01
S      4  0.3551230000000 -0.2946390000000  0.0119420000000 1.0   0.01
S      4  0.3551230000000  0.2946390000000 -0.0119420000000 1.0   0.01
Fe     5  0.3791130000000 -0.4772640000000 -0.2488890000000 1.0   3.69
Fe     5  0.3791130000000  0.4772640000000  0.2488890000000 1.0   3.69
Fe     5 -0.3791130000000 -0.2488890000000  0.4772640000000 1.0   3.69
Fe     5 -0.3791130000000  0.2488890000000 -0.4772640000000 1.0   3.69
END
