TITL 4LiFeSO4F-200804-065722-5677df -0.0369 495.825428 -1.51245386E+004 -11.3379 11.8706 32 (Cm) n - 1
REM
REM Run started: Tue, 04 Aug 2020 22:54:06 +0100 in /lustre/scratch/uccabz1/launch_tmp/launcher_2020-08-04-17-58-30-794599
REM CASTEP 20.1 from code version af48c487+ pr-geom-scf-spinfix Tue Jun 2 15:39:59 2020 +0100
REM Functional Perdew Burke Ernzerhof Relativity Koelling-Harmon Dispersion off
REM Cut-off 340.0000 eV Grid scale 1.7500 Gmax 16.5316 1/A FBSC none
REM MP grid 3 2 2 Offset 0.000 0.000 0.000 No. kpts 5 Spacing 0.07
REM Total runtime: 17799.4 s
REM Overall efficiency: 76.1429 %
REM
REM
REM
REM compiler GCC version 4.9.2
REM options -cpp -iprefix /lustre/shared/ucl/apps/gcc/4.9.2/bin/../lib/gcc/x86_64-unknown-linux-gnu/4.9.2/ -mtune=corei7 -march=x86-64 -g -Og
REM COMMAND_LINE
REM seed 1260874103 -1361557183 1284795122 484351985 2030954099 1293898651 -824892784 -2099833761 602784556 -273510721 1898205477 -20444228
REM
REM S 3|1.8|5|6|7|30:31:32(qc=5)
REM O 2|1.5|12|13|15|20:21(qc=5)
REM Li 1|1.3|8|9|10|10U:20(qc=5)
REM Fe 3|2.2|2.0|1.0|8|9|10|40:41:32(qc=5)
REM F 2|1.6|10|12|13|20:21(qc=5)
REM 
CELL 1.54180    5.99761    9.33376    9.33376   98.97625  100.38818  100.38818
LATT -1
SFAC Li O  F  S  Fe 
Li     1  0.0162800000000 -0.0144050000000  0.3932620000000 1.0  -0.02
Li     1  0.0162800000000  0.3932620000000 -0.0144050000000 1.0  -0.02
Li     1 -0.2682880000000 -0.2064830000000 -0.2064830000000 1.0  -0.01
Li     1  0.2318240000000 -0.3085830000000 -0.3085830000000 1.0  -0.00
O      2 -0.5167140000000 -0.3199510000000 -0.1283750000000 1.0  -0.01
O      2 -0.5904850000000 -0.1633540000000  0.0879690000000 1.0  -0.16
O      2 -0.3369520000000 -0.3421720000000  0.1196070000000 1.0  -0.06
O      2 -0.7600270000000 -0.4295390000000  0.0318660000000 1.0  -0.03
O      2 -0.5167140000000 -0.1283750000000 -0.3199510000000 1.0  -0.01
O      2 -0.5904850000000  0.0879690000000 -0.1633540000000 1.0  -0.16
O      2 -0.3369520000000  0.1196070000000 -0.3421720000000 1.0  -0.06
O      2 -0.7600270000000  0.0318660000000 -0.4295390000000 1.0  -0.03
O      2 -0.0858330000000  0.1683640000000 -0.6371800000000 1.0  -0.25
O      2 -0.3865290000000  0.3697740000000 -0.4635460000000 1.0  -0.05
O      2 -0.0298750000000  0.5005080000000 -0.3383600000000 1.0  -0.01
O      2 -0.2930480000000  0.3871980000000 -0.1613750000000 1.0  -0.69
O      2 -0.0858330000000 -0.6371800000000  0.1683640000000 1.0  -0.25
O      2 -0.3865290000000 -0.4635460000000  0.3697740000000 1.0  -0.05
O      2 -0.0298750000000 -0.3383600000000  0.5005080000000 1.0  -0.01
O      2 -0.2930480000000 -0.1613750000000  0.3871980000000 1.0  -0.69
F      3  0.0637280000000 -0.1957160000000  0.2893710000000 1.0  -0.08
F      3  0.0637280000000  0.2893710000000 -0.1957160000000 1.0  -0.08
F      3 -0.2676620000000  0.0595220000000  0.0595220000000 1.0  -0.00
F      3  0.0494800000000 -0.1486610000000 -0.1486610000000 1.0  -0.15
S      4 -0.5580690000000 -0.3182450000000  0.0258360000000 1.0  -0.00
S      4 -0.5580690000000  0.0258360000000 -0.3182450000000 1.0  -0.00
S      4 -0.2530040000000 -0.4545520000000 -0.4545520000000 1.0  -0.09
S      4  0.2528010000000  0.1612340000000  0.1612340000000 1.0  -0.23
Fe     5 -0.1943180000000 -0.3070520000000  0.3271960000000 1.0  -1.85
Fe     5 -0.1943180000000  0.3271960000000 -0.3070520000000 1.0  -1.85
Fe     5  0.3092380000000 -0.0139340000000 -0.0139340000000 1.0  -3.87
Fe     5 -0.0707580000000  0.1998300000000  0.1998300000000 1.0  -0.54
END
