TITL 4LiFeSO4F-200804-085806-f11541 0.0295 530.558909 -1.51297586E+004 15.9999 16.2413 32 (P43) n - 1
REM
REM Run started: Tue, 04 Aug 2020 10:41:06 +0100 in /lustre/scratch/uccabz1/launch_tmp/launcher_2020-08-04-07-58-04-119607
REM CASTEP 20.1 from code version af48c487+ pr-geom-scf-spinfix Tue Jun 2 15:39:59 2020 +0100
REM Functional Perdew Burke Ernzerhof Relativity Koelling-Harmon Dispersion off
REM Cut-off 340.0000 eV Grid scale 1.7500 Gmax 16.5316 1/A FBSC none
REM MP grid 4 2 2 Offset 0.000 0.000 0.000 No. kpts 2 Spacing 0.07
REM Total runtime: 6229.18 s
REM Overall efficiency: 74 %
REM
REM 4LiFeSO4F.cell (79c870615ff1d88195b1fe3fe805288c)
REM
REM compiler GCC version 4.9.2
REM options -cpp -iprefix /lustre/shared/ucl/apps/gcc/4.9.2/bin/../lib/gcc/x86_64-unknown-linux-gnu/4.9.2/ -mtune=corei7 -march=x86-64 -g -Og
REM COMMAND_LINE
REM seed 1231143717 -1192836066 -45542942 -1521403382 -1618944298 -653988239 -1844264511 1333604307 -1224460878 565350169 427721929 1956200676
REM
REM S 3|1.8|5|6|7|30:31:32(qc=5)
REM O 2|1.5|12|13|15|20:21(qc=5)
REM Li 1|1.3|8|9|10|10U:20(qc=5)
REM Fe 3|2.2|2.0|1.0|8|9|10|40:41:32(qc=5)
REM F 2|1.6|10|12|13|20:21(qc=5)
REM 
CELL 1.54180    4.64803   10.68396   10.68396   90.00000   90.00000   90.00000
LATT -1
SFAC Li O  F  S  Fe 
Li     1 -0.0300950000000 -0.3602060000000  0.0577330000000 1.0  -0.01
Li     1  0.4699050000000  0.3602060000000 -0.0577330000000 1.0  -0.01
Li     1  0.2199050000000  0.0577330000000  0.3602060000000 1.0  -0.01
Li     1 -0.2800950000000 -0.0577330000000 -0.3602060000000 1.0  -0.01
O      2 -0.6421910000000 -0.2819320000000 -0.2226580000000 1.0   0.06
O      2 -0.6342890000000 -0.3114220000000  0.0103940000000 1.0   0.01
O      2 -0.2081980000000 -0.3612260000000 -0.1144290000000 1.0   0.04
O      2 -0.6531390000000 -0.4898020000000 -0.1372610000000 1.0   0.04
O      2 -0.1421910000000  0.2819320000000  0.2226580000000 1.0   0.06
O      2 -0.1342890000000  0.3114220000000 -0.0103940000000 1.0   0.01
O      2  0.2918020000000  0.3612260000000  0.1144290000000 1.0   0.04
O      2 -0.1531390000000  0.4898020000000  0.1372610000000 1.0   0.04
O      2 -0.3921910000000 -0.2226580000000  0.2819320000000 1.0   0.06
O      2 -0.3842890000000  0.0103940000000  0.3114220000000 1.0   0.01
O      2  0.0418020000000 -0.1144290000000  0.3612260000000 1.0   0.04
O      2 -0.4031390000000 -0.1372610000000  0.4898020000000 1.0   0.04
O      2  0.1078090000000  0.2226580000000 -0.2819320000000 1.0   0.06
O      2  0.1157110000000 -0.0103940000000 -0.3114220000000 1.0   0.01
O      2  0.5418020000000  0.1144290000000 -0.3612260000000 1.0   0.04
O      2  0.0968610000000  0.1372610000000 -0.4898020000000 1.0   0.04
F      3  0.0624640000000 -0.3273180000000 -0.4490230000000 1.0   0.14
F      3  0.5624640000000  0.3273180000000  0.4490230000000 1.0   0.14
F      3  0.3124640000000 -0.4490230000000  0.3273180000000 1.0   0.14
F      3 -0.1875360000000  0.4490230000000 -0.3273180000000 1.0   0.14
S      4 -0.5356090000000 -0.3589090000000 -0.1129730000000 1.0   0.00
S      4 -0.0356090000000  0.3589090000000  0.1129730000000 1.0   0.00
S      4 -0.2856090000000 -0.1129730000000  0.3589090000000 1.0   0.00
S      4  0.2143910000000  0.1129730000000 -0.3589090000000 1.0   0.00
Fe     5  0.2809940000000 -0.2815410000000  0.4040160000000 1.0   3.72
Fe     5 -0.2190060000000  0.2815410000000 -0.4040160000000 1.0   3.72
Fe     5  0.5309940000000  0.4040160000000  0.2815410000000 1.0   3.72
Fe     5  0.0309940000000 -0.4040160000000 -0.2815410000000 1.0   3.72
END
