TITL 4LiFeSO4F-200804-074917-7d1ae3 -0.0110 519.893193 -1.51300130E+004 16.0000 16.3035 32 (P21) n - 1
REM
REM Run started: Tue, 04 Aug 2020 14:39:18 +0100 in /lustre/scratch/uccabz1/launch_tmp/launcher_2020-08-04-06-49-14-855574
REM CASTEP 20.1 from code version af48c487+ pr-geom-scf-spinfix Tue Jun 2 15:39:59 2020 +0100
REM Functional Perdew Burke Ernzerhof Relativity Koelling-Harmon Dispersion off
REM Cut-off 340.0000 eV Grid scale 1.7500 Gmax 16.5316 1/A FBSC none
REM MP grid 3 2 1 Offset 0.000 0.000 0.000 No. kpts 3 Spacing 0.07
REM Total runtime: 24822.4 s
REM Overall efficiency: 74.9 %
REM
REM 4LiFeSO4F.cell (79c870615ff1d88195b1fe3fe805288c)
REM
REM compiler GCC version 4.9.2
REM options -cpp -iprefix /lustre/shared/ucl/apps/gcc/4.9.2/bin/../lib/gcc/x86_64-unknown-linux-gnu/4.9.2/ -mtune=corei7 -march=x86-64 -g -Og
REM COMMAND_LINE
REM seed 1908466928 1809367686 -1857226337 -634732769 -1769883620 656278127 175608771 -1375909834 -1322782048 -2025501222 318985044 -2144402681
REM
REM S 3|1.8|5|6|7|30:31:32(qc=5)
REM O 2|1.5|12|13|15|20:21(qc=5)
REM Li 1|1.3|8|9|10|10U:20(qc=5)
REM Fe 3|2.2|2.0|1.0|8|9|10|40:41:32(qc=5)
REM F 2|1.6|10|12|13|20:21(qc=5)
REM 
CELL 1.54180    4.95093    7.44346   14.47492   90.00000   90.00000  102.93526
LATT -1
SFAC Li O  F  S  Fe 
Li     1  0.1269600000000  0.3343090000000 -0.2357940000000 1.0  -0.01
Li     1 -0.1269600000000 -0.3343090000000  0.2642060000000 1.0  -0.01
Li     1 -0.3803000000000  0.2235480000000  0.3562480000000 1.0  -0.02
Li     1  0.3803000000000 -0.2235480000000 -0.1437520000000 1.0  -0.02
O      2 -0.2843440000000 -0.3300420000000 -0.1352000000000 1.0   0.05
O      2 -0.2722370000000 -0.6373200000000 -0.2014130000000 1.0   0.01
O      2  0.1231510000000 -0.3844990000000 -0.2240140000000 1.0   0.01
O      2 -0.3212160000000 -0.3808170000000 -0.3017220000000 1.0   0.06
O      2  0.2843440000000  0.3300420000000  0.3648000000000 1.0   0.05
O      2  0.2722370000000  0.6373200000000  0.2985870000000 1.0   0.01
O      2 -0.1231510000000  0.3844990000000  0.2759860000000 1.0   0.01
O      2  0.3212160000000  0.3808170000000  0.1982780000000 1.0   0.06
O      2 -0.2128200000000 -0.2681760000000  0.1230340000000 1.0   0.07
O      2 -0.4833450000000 -0.0276930000000  0.1379670000000 1.0   0.07
O      2 -0.0038270000000  0.0598170000000  0.0893860000000 1.0   0.07
O      2 -0.1204960000000 -0.0581640000000  0.2512450000000 1.0   0.01
O      2  0.2128200000000  0.2681760000000 -0.3769660000000 1.0   0.07
O      2  0.4833450000000  0.0276930000000 -0.3620330000000 1.0   0.07
O      2  0.0038270000000 -0.0598170000000 -0.4106140000000 1.0   0.07
O      2  0.1204960000000  0.0581640000000 -0.2487550000000 1.0   0.01
F      3  0.3916930000000 -0.3809970000000 -0.4763120000000 1.0   0.13
F      3 -0.3916930000000  0.3809970000000  0.0236880000000 1.0   0.13
F      3  0.2202890000000 -0.2706420000000 -0.0311010000000 1.0   0.12
F      3 -0.2202890000000  0.2706420000000  0.4688990000000 1.0   0.12
S      4 -0.1886330000000 -0.4347450000000 -0.2163580000000 1.0   0.01
S      4  0.1886330000000  0.4347450000000  0.2836420000000 1.0   0.01
S      4 -0.2020800000000 -0.0686250000000  0.1521280000000 1.0   0.02
S      4  0.2020800000000  0.0686250000000 -0.3478720000000 1.0   0.02
Fe     5 -0.3868680000000 -0.1975170000000 -0.3951280000000 1.0   3.69
Fe     5  0.3868680000000  0.1975170000000  0.1048720000000 1.0   3.69
Fe     5  0.1578690000000  0.3726000000000  0.4978660000000 1.0   3.71
Fe     5 -0.1578690000000 -0.3726000000000 -0.0021340000000 1.0   3.71
END
