TITL 4LiFeSO4F-200818-052924-942c6d -0.0262 498.547392 -1.51299717E+004 16.0000 16.3710 32 (P2) n - 1
REM
REM Run started: Wed, 26 Aug 2020 18:12:37 +0100 in /lustre/scratch/uccabz1/launch_tmp/launcher_2020-08-26-08-02-54-388731
REM CASTEP 20.1 from code version af48c487+ pr-geom-scf-spinfix Tue Jun 2 15:39:59 2020 +0100
REM Functional Perdew Burke Ernzerhof Relativity Koelling-Harmon Dispersion off
REM Cut-off 340.0000 eV Grid scale 1.7500 Gmax 16.5316 1/A FBSC none
REM MP grid 3 2 2 Offset 0.000 0.000 0.000 No. kpts 4 Spacing 0.07
REM Total runtime: 33381.6 s
REM Overall efficiency: 76.3077 %
REM
REM
REM
REM compiler GCC version 4.9.2
REM options -cpp -iprefix /lustre/shared/ucl/apps/gcc/4.9.2/bin/../lib/gcc/x86_64-unknown-linux-gnu/4.9.2/ -mtune=corei7 -march=x86-64 -g -Og
REM COMMAND_LINE
REM seed 1088005011 623166289 509385531 -1593843176 -426512532 627230604 1816460045 1219346617 1276679306 1920217451 -601583050 -1413364592
REM
REM S 3|1.8|5|6|7|30:31:32(qc=5)
REM O 2|1.5|12|13|15|20:21(qc=5)
REM Li 1|1.3|8|9|10|10U:20(qc=5)
REM Fe 3|2.2|2.0|1.0|8|9|10|40:41:32(qc=5)
REM F 2|1.6|10|12|13|20:21(qc=5)
REM 
CELL 1.54180    5.17460   10.17364   10.04485  109.47625   90.00000   90.00000
LATT -1
SFAC Li O  F  S  Fe 
Li     1 -0.2577340000000 -0.1937000000000 -0.3438170000000 1.0  -0.01
Li     1 -0.2577340000000  0.1937000000000  0.3438170000000 1.0  -0.01
Li     1  0.1120340000000  0.2664030000000  0.0987890000000 1.0  -0.02
Li     1  0.1120340000000 -0.2664030000000 -0.0987890000000 1.0  -0.02
O      2 -0.1984240000000  0.3626600000000  0.0211980000000 1.0   0.08
O      2 -0.1831290000000  0.3281930000000  0.2457260000000 1.0   0.02
O      2 -0.6038420000000  0.3790740000000  0.1563360000000 1.0   0.01
O      2 -0.2785510000000  0.5629520000000  0.2341810000000 1.0   0.09
O      2 -0.1984240000000 -0.3626600000000 -0.0211980000000 1.0   0.08
O      2 -0.1831290000000 -0.3281930000000 -0.2457260000000 1.0   0.02
O      2 -0.6038420000000 -0.3790740000000 -0.1563360000000 1.0   0.01
O      2 -0.2785510000000 -0.5629520000000 -0.2341810000000 1.0   0.09
O      2  0.5040560000000 -0.1811020000000  0.4958590000000 1.0   0.02
O      2  0.1269360000000 -0.1844170000000  0.3451150000000 1.0   0.10
O      2  0.0779840000000 -0.1313860000000  0.6040020000000 1.0   0.08
O      2  0.1716800000000 -0.3729620000000  0.4483960000000 1.0   0.02
O      2  0.5040560000000  0.1811020000000 -0.4958590000000 1.0   0.02
O      2  0.1269360000000  0.1844170000000 -0.3451150000000 1.0   0.10
O      2  0.0779840000000  0.1313860000000 -0.6040020000000 1.0   0.08
O      2  0.1716800000000  0.3729620000000 -0.4483960000000 1.0   0.02
F      3 -0.4160680000000 -0.0312170000000 -0.2135950000000 1.0   0.13
F      3 -0.4160680000000  0.0312170000000  0.2135950000000 1.0   0.13
F      3  0.1168480000000  0.1596660000000 -0.0985760000000 1.0   0.11
F      3  0.1168480000000 -0.1596660000000  0.0985760000000 1.0   0.11
S      4 -0.3247880000000  0.4077930000000  0.1670600000000 1.0   0.01
S      4 -0.3247880000000 -0.4077930000000 -0.1670600000000 1.0   0.01
S      4  0.2297580000000 -0.2272470000000  0.4742160000000 1.0   0.00
S      4  0.2297580000000  0.2272470000000 -0.4742160000000 1.0   0.00
Fe     5  0.2872580000000 -0.0338250000000  0.2764110000000 1.0   3.72
Fe     5  0.2872580000000  0.0338250000000 -0.2764110000000 1.0   3.72
Fe     5 -0.0952890000000 -0.2964180000000  0.1770010000000 1.0   3.63
Fe     5 -0.0952890000000  0.2964180000000 -0.1770010000000 1.0   3.63
END
