TITL 4LiFeSO4F-200804-062847-ad0c12 -0.0237 463.564496 -1.51300974E+004 16.0000 16.1778 32 (Pba2) n - 1
REM
REM Run started: Tue, 04 Aug 2020 07:24:57 +0100 in /lustre/scratch/uccabz1/launch_tmp/launcher_2020-08-04-05-28-44-076373
REM CASTEP 20.1 from code version af48c487+ pr-geom-scf-spinfix Tue Jun 2 15:39:59 2020 +0100
REM Functional Perdew Burke Ernzerhof Relativity Koelling-Harmon Dispersion off
REM Cut-off 340.0000 eV Grid scale 1.7500 Gmax 16.5316 1/A FBSC none
REM MP grid 3 2 2 Offset 0.000 0.000 0.000 No. kpts 2 Spacing 0.07
REM Total runtime: 3419.93 s
REM Overall efficiency: 70.25 %
REM
REM 4LiFeSO4F.cell (79c870615ff1d88195b1fe3fe805288c)
REM
REM compiler GCC version 4.9.2
REM options -cpp -iprefix /lustre/shared/ucl/apps/gcc/4.9.2/bin/../lib/gcc/x86_64-unknown-linux-gnu/4.9.2/ -mtune=corei7 -march=x86-64 -g -Og
REM COMMAND_LINE
REM seed -1999065176 1201592431 -16748361 -648773893 -189929879 -1662387781 -1521693632 1871587968 1828115404 2131759493 -1416004205 2012570710
REM
REM S 3|1.8|5|6|7|30:31:32(qc=5)
REM O 2|1.5|12|13|15|20:21(qc=5)
REM Li 1|1.3|8|9|10|10U:20(qc=5)
REM Fe 3|2.2|2.0|1.0|8|9|10|40:41:32(qc=5)
REM F 2|1.6|10|12|13|20:21(qc=5)
REM 
CELL 1.54180    5.94573    7.43857   10.48130   90.00000   90.00000   90.00000
LATT -1
SFAC Li O  F  S  Fe 
Li     1 -0.2027780000000  0.0638440000000 -0.2998910000000 1.0  -0.01
Li     1 -0.2027780000000 -0.0638440000000  0.2998910000000 1.0  -0.01
Li     1 -0.2027780000000  0.4361560000000  0.2001090000000 1.0  -0.01
Li     1 -0.2027780000000 -0.4361560000000 -0.2001090000000 1.0  -0.01
O      2  0.0685950000000 -0.2337470000000 -0.5448420000000 1.0   0.06
O      2  0.2616050000000 -0.3903140000000 -0.3668990000000 1.0   0.07
O      2 -0.1572540000000 -0.3841750000000 -0.3777630000000 1.0   0.01
O      2  0.0599150000000 -0.1143670000000 -0.3241600000000 1.0   0.05
O      2  0.0685950000000  0.2337470000000  0.5448420000000 1.0   0.06
O      2  0.2616050000000  0.3903140000000  0.3668990000000 1.0   0.07
O      2 -0.1572540000000  0.3841750000000  0.3777630000000 1.0   0.01
O      2  0.0599150000000  0.1143670000000  0.3241600000000 1.0   0.05
O      2  0.0685950000000 -0.2662530000000 -0.0448420000000 1.0   0.06
O      2  0.2616050000000 -0.1096860000000  0.1331010000000 1.0   0.07
O      2 -0.1572540000000 -0.1158250000000  0.1222370000000 1.0   0.01
O      2  0.0599150000000 -0.3856330000000  0.1758400000000 1.0   0.05
O      2  0.0685950000000  0.2662530000000  0.0448420000000 1.0   0.06
O      2  0.2616050000000  0.1096860000000 -0.1331010000000 1.0   0.07
O      2 -0.1572540000000  0.1158250000000 -0.1222370000000 1.0   0.01
O      2  0.0599150000000  0.3856330000000 -0.1758400000000 1.0   0.05
F      3 -0.4474100000000  0.2975900000000  0.1548080000000 1.0   0.11
F      3 -0.4474100000000 -0.2975900000000 -0.1548080000000 1.0   0.11
F      3 -0.4474100000000  0.2024100000000 -0.3451920000000 1.0   0.11
F      3 -0.4474100000000 -0.2024100000000  0.3451920000000 1.0   0.11
S      4  0.0517870000000 -0.2849930000000 -0.4062890000000 1.0   0.01
S      4  0.0517870000000  0.2849930000000  0.4062890000000 1.0   0.01
S      4  0.0517870000000 -0.2150070000000  0.0937110000000 1.0   0.01
S      4  0.0517870000000  0.2150070000000 -0.0937110000000 1.0   0.01
Fe     5  0.2925630000000 -0.3441580000000  0.3245740000000 1.0   3.71
Fe     5  0.2925630000000  0.3441580000000 -0.3245740000000 1.0   3.71
Fe     5  0.2925630000000 -0.1558420000000 -0.1754260000000 1.0   3.71
Fe     5  0.2925630000000  0.1558420000000  0.1754260000000 1.0   3.71
END
