TITL 4LiFeSO4F-200817-235518-4120e6 -0.0176 637.640071 -1.51287397E+004 16.0000 16.3767 32 (Ccc2) n - 1
REM
REM Run started: Tue, 18 Aug 2020 11:49:46 +0100 in /lustre/scratch/uccabz1/launch_tmp/launcher_2020-08-17-22-55-09-037724
REM CASTEP 20.1 from code version af48c487+ pr-geom-scf-spinfix Tue Jun 2 15:39:59 2020 +0100
REM Functional Perdew Burke Ernzerhof Relativity Koelling-Harmon Dispersion off
REM Cut-off 340.0000 eV Grid scale 1.7500 Gmax 16.5316 1/A FBSC none
REM MP grid 3 3 1 Offset 0.000 0.000 0.000 No. kpts 4 Spacing 0.07
REM Total runtime: 47462.7 s
REM Overall efficiency: 74.75 %
REM
REM 4LiFeSO4F.cell (79c870615ff1d88195b1fe3fe805288c)
REM
REM compiler GCC version 4.9.2
REM options -cpp -iprefix /lustre/shared/ucl/apps/gcc/4.9.2/bin/../lib/gcc/x86_64-unknown-linux-gnu/4.9.2/ -mtune=corei7 -march=x86-64 -g -Og
REM COMMAND_LINE
REM seed 853599752 38450694 -254436724 1778344224 955922268 727411087 -1674879037 -1366102859 -726492302 -1502400334 301006276 -312427671
REM
REM S 3|1.8|5|6|7|30:31:32(qc=5)
REM O 2|1.5|12|13|15|20:21(qc=5)
REM Li 1|1.3|8|9|10|10U:20(qc=5)
REM Fe 3|2.2|2.0|1.0|8|9|10|40:41:32(qc=5)
REM F 2|1.6|10|12|13|20:21(qc=5)
REM 
CELL 1.54180    6.74555    5.96242   16.20870   90.00000  102.01010   90.00000
LATT -1
SFAC Li O  F  S  Fe 
Li     1  0.4063820000000  0.1100680000000  0.3291750000000 1.0  -0.01
Li     1 -0.4063820000000  0.1100680000000 -0.3291750000000 1.0  -0.01
Li     1  0.0772070000000 -0.3899320000000 -0.3291750000000 1.0  -0.01
Li     1 -0.0772070000000 -0.3899320000000  0.3291750000000 1.0  -0.01
O      2  0.4712340000000 -0.2028820000000  0.3669050000000 1.0   0.01
O      2  0.2949130000000 -0.2436790000000  0.2181120000000 1.0   0.07
O      2  0.3426100000000 -0.5742300000000  0.3146780000000 1.0   0.01
O      2  0.6297110000000 -0.3985840000000  0.2609780000000 1.0   0.08
O      2 -0.4712340000000 -0.2028820000000 -0.3669050000000 1.0   0.01
O      2 -0.2949130000000 -0.2436790000000 -0.2181120000000 1.0   0.07
O      2 -0.3426100000000 -0.5742300000000 -0.3146780000000 1.0   0.01
O      2 -0.6297110000000 -0.3985840000000 -0.2609780000000 1.0   0.08
O      2  0.1043290000000  0.2971180000000 -0.3669050000000 1.0   0.01
O      2  0.0768010000000  0.2563210000000 -0.2181120000000 1.0   0.07
O      2  0.0279320000000 -0.0742300000000 -0.3146780000000 1.0   0.01
O      2  0.3687320000000  0.1014160000000 -0.2609780000000 1.0   0.08
O      2 -0.1043290000000  0.2971180000000  0.3669050000000 1.0   0.01
O      2 -0.0768010000000  0.2563210000000  0.2181120000000 1.0   0.07
O      2 -0.0279320000000 -0.0742300000000  0.3146780000000 1.0   0.01
O      2 -0.3687320000000  0.1014160000000  0.2609780000000 1.0   0.08
F      3  0.4913800000000  0.1583050000000  0.0884600000000 1.0   0.16
F      3 -0.4913800000000  0.1583050000000 -0.0884600000000 1.0   0.16
F      3  0.4029190000000 -0.3416950000000 -0.0884600000000 1.0   0.16
F      3 -0.4029190000000 -0.3416950000000  0.0884600000000 1.0   0.16
S      4  0.4301980000000 -0.3588240000000  0.2940770000000 1.0   0.00
S      4 -0.4301980000000 -0.3588240000000 -0.2940770000000 1.0   0.00
S      4  0.1361210000000  0.1411760000000 -0.2940770000000 1.0   0.00
S      4 -0.1361210000000  0.1411760000000  0.2940770000000 1.0   0.00
Fe     5 -0.5025110000000 -0.1094790000000 -0.1566340000000 1.0   3.69
Fe     5  0.5025110000000 -0.1094790000000  0.1566340000000 1.0   3.69
Fe     5 -0.3458770000000  0.3905210000000  0.1566340000000 1.0   3.69
Fe     5  0.3458770000000  0.3905210000000 -0.1566340000000 1.0   3.69
END
