TITL 4LiFeSO4F-200804-081155-d0c782 0.0310 539.237918 -1.51316110E+004 16.0000 16.3940 32 (P21212) n - 1
REM
REM Run started: Tue, 04 Aug 2020 10:17:52 +0100 in /lustre/scratch/uccabz1/launch_tmp/launcher_2020-08-04-07-11-51-650277
REM CASTEP 20.1 from code version af48c487+ pr-geom-scf-spinfix Tue Jun 2 15:39:59 2020 +0100
REM Functional Perdew Burke Ernzerhof Relativity Koelling-Harmon Dispersion off
REM Cut-off 340.0000 eV Grid scale 1.7500 Gmax 16.5316 1/A FBSC none
REM MP grid 3 2 2 Offset 0.000 0.000 0.000 No. kpts 2 Spacing 0.07
REM Total runtime: 7600.98 s
REM Overall efficiency: 75 %
REM
REM 4LiFeSO4F.cell (79c870615ff1d88195b1fe3fe805288c)
REM
REM compiler GCC version 4.9.2
REM options -cpp -iprefix /lustre/shared/ucl/apps/gcc/4.9.2/bin/../lib/gcc/x86_64-unknown-linux-gnu/4.9.2/ -mtune=corei7 -march=x86-64 -g -Og
REM COMMAND_LINE
REM seed -653020471 -2010190487 -263728069 -1243976675 629790312 -1107928759 -1596767239 1807171863 469175717 1302164049 -1976339026 -147050975
REM
REM S 3|1.8|5|6|7|30:31:32(qc=5)
REM O 2|1.5|12|13|15|20:21(qc=5)
REM Li 1|1.3|8|9|10|10U:20(qc=5)
REM Fe 3|2.2|2.0|1.0|8|9|10|40:41:32(qc=5)
REM F 2|1.6|10|12|13|20:21(qc=5)
REM 
CELL 1.54180    5.63562   10.37091    9.22619   90.00000   90.00000   90.00000
LATT -1
SFAC Li O  F  S  Fe 
Li     1 -0.0512260000000  0.3680930000000 -0.0068020000000 1.0  -0.02
Li     1 -0.0512260000000 -0.3680930000000  0.0068020000000 1.0  -0.02
Li     1  0.0512260000000  0.1319070000000  0.4931980000000 1.0  -0.02
Li     1  0.0512260000000 -0.1319070000000 -0.4931980000000 1.0  -0.02
O      2 -0.2045730000000 -0.2280350000000  0.4299770000000 1.0   0.01
O      2 -0.4785890000000 -0.3961000000000  0.3433390000000 1.0   0.07
O      2 -0.6357380000000 -0.1850320000000  0.4091390000000 1.0   0.06
O      2 -0.4930690000000 -0.3259430000000  0.5984880000000 1.0   0.08
O      2 -0.2045730000000  0.2280350000000 -0.4299770000000 1.0   0.01
O      2 -0.4785890000000  0.3961000000000 -0.3433390000000 1.0   0.07
O      2 -0.6357380000000  0.1850320000000 -0.4091390000000 1.0   0.06
O      2 -0.4930690000000  0.3259430000000 -0.5984880000000 1.0   0.08
O      2  0.2045730000000 -0.2719650000000 -0.0700230000000 1.0   0.01
O      2  0.4785890000000 -0.1039000000000 -0.1566610000000 1.0   0.07
O      2  0.6357380000000 -0.3149680000000 -0.0908610000000 1.0   0.06
O      2  0.4930690000000 -0.1740570000000  0.0984880000000 1.0   0.08
O      2  0.2045730000000  0.2719650000000  0.0700230000000 1.0   0.01
O      2  0.4785890000000  0.1039000000000  0.1566610000000 1.0   0.07
O      2  0.6357380000000  0.3149680000000  0.0908610000000 1.0   0.06
O      2  0.4930690000000  0.1740570000000 -0.0984880000000 1.0   0.08
F      3 -0.0822410000000 -0.4887090000000  0.1499550000000 1.0   0.09
F      3 -0.0822410000000  0.4887090000000 -0.1499550000000 1.0   0.09
F      3  0.0822410000000 -0.0112910000000 -0.3500450000000 1.0   0.09
F      3  0.0822410000000  0.0112910000000  0.3500450000000 1.0   0.09
S      4 -0.4443320000000 -0.2837490000000  0.4442110000000 1.0   0.02
S      4 -0.4443320000000  0.2837490000000 -0.4442110000000 1.0   0.02
S      4  0.4443320000000 -0.2162510000000 -0.0557890000000 1.0   0.02
S      4  0.4443320000000  0.2162510000000  0.0557890000000 1.0   0.02
Fe     5  0.3398850000000 -0.0557880000000  0.2358180000000 1.0   3.69
Fe     5  0.3398850000000  0.0557880000000 -0.2358180000000 1.0   3.69
Fe     5 -0.3398850000000 -0.4442120000000 -0.2641820000000 1.0   3.69
Fe     5 -0.3398850000000  0.4442120000000  0.2641820000000 1.0   3.69
END
