TITL 4LiFeSO4F-200804-094417-a6f1bc -0.0476 578.610362 -1.51301382E+004 16.0000 16.2212 32 (Aea2) n - 1
REM
REM Run started: Tue, 04 Aug 2020 17:01:31 +0100 in /lustre/scratch/uccabz1/launch_tmp/launcher_2020-08-04-08-44-00-001168
REM CASTEP 20.1 from code version af48c487+ pr-geom-scf-spinfix Tue Jun 2 15:39:59 2020 +0100
REM Functional Perdew Burke Ernzerhof Relativity Koelling-Harmon Dispersion off
REM Cut-off 340.0000 eV Grid scale 1.7500 Gmax 16.5316 1/A FBSC none
REM MP grid 3 2 2 Offset 0.000 0.000 0.000 No. kpts 4 Spacing 0.07
REM Total runtime: 29255.8 s
REM Overall efficiency: 77.8333 %
REM
REM 4LiFeSO4F.cell (79c870615ff1d88195b1fe3fe805288c)
REM
REM compiler GCC version 4.9.2
REM options -cpp -iprefix /lustre/shared/ucl/apps/gcc/4.9.2/bin/../lib/gcc/x86_64-unknown-linux-gnu/4.9.2/ -mtune=corei7 -march=x86-64 -g -Og
REM COMMAND_LINE
REM seed 2019796996 -677205308 2141373225 -848871550 -280605726 1708365188 -1439530310 -895030374 -1161621125 1380075487 -1361209789 -559514257
REM
REM S 3|1.8|5|6|7|30:31:32(qc=5)
REM O 2|1.5|12|13|15|20:21(qc=5)
REM Li 1|1.3|8|9|10|10U:20(qc=5)
REM Fe 3|2.2|2.0|1.0|8|9|10|40:41:32(qc=5)
REM F 2|1.6|10|12|13|20:21(qc=5)
REM 
CELL 1.54180    5.98911   10.12001   10.12001   70.61773   90.00000   90.00000
LATT -1
SFAC Li O  F  S  Fe 
Li     1 -0.3656400000000 -0.2283480000000  0.0833020000000 1.0  -0.02
Li     1  0.3656400000000 -0.0833020000000  0.2283480000000 1.0  -0.02
Li     1  0.1343600000000  0.4166980000000 -0.2716520000000 1.0  -0.02
Li     1 -0.1343600000000  0.2716520000000 -0.4166980000000 1.0  -0.02
O      2  0.2250490000000 -0.1425710000000 -0.5913420000000 1.0   0.01
O      2  0.4731910000000 -0.3049220000000 -0.4179000000000 1.0   0.07
O      2  0.2634640000000 -0.3824790000000 -0.5917610000000 1.0   0.05
O      2  0.0751910000000 -0.3422870000000 -0.3918940000000 1.0   0.06
O      2 -0.2250490000000  0.5913420000000  0.1425710000000 1.0   0.01
O      2 -0.4731910000000  0.4179000000000  0.3049220000000 1.0   0.07
O      2 -0.2634640000000  0.5917610000000  0.3824790000000 1.0   0.05
O      2 -0.0751910000000  0.3918940000000  0.3422870000000 1.0   0.06
O      2 -0.2749510000000  0.0913420000000 -0.3574290000000 1.0   0.01
O      2 -0.0268090000000 -0.0821000000000 -0.1950780000000 1.0   0.07
O      2 -0.2365360000000  0.0917610000000 -0.1175210000000 1.0   0.05
O      2 -0.4248090000000 -0.1081060000000 -0.1577130000000 1.0   0.06
O      2  0.2749510000000  0.3574290000000 -0.0913420000000 1.0   0.01
O      2  0.0268090000000  0.1950780000000  0.0821000000000 1.0   0.07
O      2  0.2365360000000  0.1175210000000 -0.0917610000000 1.0   0.05
O      2  0.4248090000000  0.1577130000000  0.1081060000000 1.0   0.06
F      3 -0.3190920000000 -0.0908290000000  0.1787080000000 1.0   0.10
F      3  0.3190920000000 -0.1787080000000  0.0908290000000 1.0   0.10
F      3  0.1809080000000  0.3212920000000 -0.4091710000000 1.0   0.10
F      3 -0.1809080000000  0.4091710000000 -0.3212920000000 1.0   0.10
S      4  0.2590860000000 -0.2901120000000 -0.5024590000000 1.0   0.01
S      4 -0.2590860000000  0.5024590000000  0.2901120000000 1.0   0.01
S      4 -0.2409140000000  0.0024590000000 -0.2098880000000 1.0   0.01
S      4  0.2409140000000  0.2098880000000 -0.0024590000000 1.0   0.01
Fe     5  0.2396160000000  0.4216930000000  0.3948250000000 1.0   3.71
Fe     5 -0.2396160000000 -0.3948250000000 -0.4216930000000 1.0   3.71
Fe     5 -0.2603840000000  0.1051750000000  0.0783070000000 1.0   3.71
Fe     5  0.2603840000000 -0.0783070000000 -0.1051750000000 1.0   3.71
END
