TITL 4LiFeSO4F-200804-065413-a347fb -0.2267 431.823607 -1.51307615E+004 16.0000 16.2526 32 (P-1) n - 1
REM
REM Run started: Wed, 05 Aug 2020 06:33:10 +0100 in /lustre/scratch/uccabz1/launch_tmp/launcher_2020-08-04-05-54-00-052698
REM CASTEP 20.1 from code version af48c487+ pr-geom-scf-spinfix Tue Jun 2 15:39:59 2020 +0100
REM Functional Perdew Burke Ernzerhof Relativity Koelling-Harmon Dispersion off
REM Cut-off 340.0000 eV Grid scale 1.7500 Gmax 16.5316 1/A FBSC none
REM MP grid 4 2 2 Offset 0.000 0.000 0.000 No. kpts 8 Spacing 0.07
REM Total runtime: 93297.1 s
REM Overall efficiency: 86.5833 %
REM
REM 4LiFeSO4F.cell (79c870615ff1d88195b1fe3fe805288c)
REM
REM compiler GCC version 4.9.2
REM options -cpp -iprefix /lustre/shared/ucl/apps/gcc/4.9.2/bin/../lib/gcc/x86_64-unknown-linux-gnu/4.9.2/ -mtune=corei7 -march=x86-64 -g -Og
REM COMMAND_LINE
REM seed -1039486983 1019775361 1120595467 2111033204 1566187711 551500536 -1388814534 632226758 -2016803607 -1851406652 1271163386 -1959304526
REM
REM S 3|1.8|5|6|7|30:31:32(qc=5)
REM O 2|1.5|12|13|15|20:21(qc=5)
REM Li 1|1.3|8|9|10|10U:20(qc=5)
REM Fe 3|2.2|2.0|1.0|8|9|10|40:41:32(qc=5)
REM F 2|1.6|10|12|13|20:21(qc=5)
REM 
CELL 1.54180    4.86458    8.77844   11.87340   66.23184   69.60894   75.92801
LATT -1
SFAC Li O  F  S  Fe 
Li     1  0.1633970000000 -0.2430660000000 -0.0190810000000 1.0  -0.03
Li     1 -0.1633970000000  0.2430660000000  0.0190810000000 1.0  -0.03
Li     1  0.0346450000000  0.0456620000000  0.3723500000000 1.0  -0.02
Li     1 -0.0346450000000 -0.0456620000000 -0.3723500000000 1.0  -0.02
O      2 -0.2649380000000 -0.5251140000000 -0.1066080000000 1.0   0.05
O      2  0.2182100000000 -0.4113390000000 -0.2095290000000 1.0   0.08
O      2 -0.1719160000000 -0.3026170000000 -0.0525410000000 1.0   0.03
O      2 -0.2235090000000 -0.2434000000000 -0.2675980000000 1.0   0.02
O      2  0.2649380000000  0.5251140000000  0.1066080000000 1.0   0.05
O      2 -0.2182100000000  0.4113390000000  0.2095290000000 1.0   0.08
O      2  0.1719160000000  0.3026170000000  0.0525410000000 1.0   0.03
O      2  0.2235090000000  0.2434000000000  0.2675980000000 1.0   0.02
O      2  0.1117460000000  0.1241790000000 -0.3425600000000 1.0   0.06
O      2  0.3351770000000  0.2712420000000 -0.2667940000000 1.0   0.05
O      2  0.2561010000000 -0.0258260000000 -0.1421600000000 1.0   0.02
O      2 -0.1685640000000  0.1911810000000 -0.1471240000000 1.0   0.06
O      2 -0.1117460000000 -0.1241790000000  0.3425600000000 1.0   0.06
O      2 -0.3351770000000 -0.2712420000000  0.2667940000000 1.0   0.05
O      2 -0.2561010000000  0.0258260000000  0.1421600000000 1.0   0.02
O      2  0.1685640000000 -0.1911810000000  0.1471240000000 1.0   0.06
F      3 -0.2037850000000 -0.5152690000000 -0.3963920000000 1.0   0.11
F      3  0.2037850000000  0.5152690000000  0.3963920000000 1.0   0.11
F      3 -0.1837620000000  0.1415220000000 -0.4979490000000 1.0   0.09
F      3  0.1837620000000 -0.1415220000000  0.4979490000000 1.0   0.09
S      4 -0.1121610000000 -0.3686090000000 -0.1586240000000 1.0   0.01
S      4  0.1121610000000  0.3686090000000  0.1586240000000 1.0   0.01
S      4  0.1394440000000  0.1374490000000 -0.2224980000000 1.0   0.01
S      4 -0.1394440000000 -0.1374490000000  0.2224980000000 1.0   0.01
Fe     5 -0.4813830000000  0.3903210000000 -0.1929360000000 1.0   3.75
Fe     5  0.4813830000000 -0.3903210000000  0.1929360000000 1.0   3.75
Fe     5  0.0113890000000 -0.3151860000000  0.4968420000000 1.0   3.71
Fe     5 -0.0113890000000  0.3151860000000 -0.4968420000000 1.0   3.71
END
