TITL 4LiFeSO4F-200818-002923-9243f9 -0.0127 425.367940 -1.51315572E+004 16.0008 16.2533 32 (P21) n - 1
REM
REM Run started: Tue, 18 Aug 2020 13:12:33 +0100 in /lustre/scratch/uccabz1/launch_tmp/launcher_2020-08-17-23-29-21-409557
REM CASTEP 20.1 from code version af48c487+ pr-geom-scf-spinfix Tue Jun 2 15:39:59 2020 +0100
REM Functional Perdew Burke Ernzerhof Relativity Koelling-Harmon Dispersion off
REM Cut-off 340.0000 eV Grid scale 1.7500 Gmax 16.5316 1/A FBSC none
REM MP grid 3 2 2 Offset 0.000 0.000 0.000 No. kpts 4 Spacing 0.07
REM Total runtime: 45976.4 s
REM Overall efficiency: 72.7 %
REM
REM 4LiFeSO4F.cell (79c870615ff1d88195b1fe3fe805288c)
REM
REM compiler GCC version 4.9.2
REM options -cpp -iprefix /lustre/shared/ucl/apps/gcc/4.9.2/bin/../lib/gcc/x86_64-unknown-linux-gnu/4.9.2/ -mtune=corei7 -march=x86-64 -g -Og
REM COMMAND_LINE
REM seed -1009933658 440570444 -1403432690 -1518276252 445042565 832461271 1120210802 1583833261 -1943496662 -1236941869 -2061865748 -630461760
REM
REM S 3|1.8|5|6|7|30:31:32(qc=5)
REM O 2|1.5|12|13|15|20:21(qc=5)
REM Li 1|1.3|8|9|10|10U:20(qc=5)
REM Fe 3|2.2|2.0|1.0|8|9|10|40:41:32(qc=5)
REM F 2|1.6|10|12|13|20:21(qc=5)
REM 
CELL 1.54180    5.12820    9.75910    9.02783  109.69998   90.00000   90.00000
LATT -1
SFAC Li O  F  S  Fe 
Li     1 -0.3779970000000  0.1452040000000  0.0302670000000 1.0  -0.01
Li     1  0.1220030000000 -0.1452040000000 -0.0302670000000 1.0  -0.01
Li     1  0.1219470000000  0.2886610000000  0.2644380000000 1.0  -0.01
Li     1 -0.3780530000000 -0.2886610000000 -0.2644380000000 1.0  -0.01
O      2  0.4491070000000 -0.0956140000000 -0.4331260000000 1.0   0.04
O      2  0.3970880000000 -0.1018110000000 -0.1628680000000 1.0   0.02
O      2  0.0992770000000  0.0460010000000 -0.2561450000000 1.0   0.05
O      2  0.5676430000000  0.1147150000000 -0.2050310000000 1.0   0.04
O      2 -0.0508930000000  0.0956140000000  0.4331260000000 1.0   0.04
O      2 -0.1029120000000  0.1018110000000  0.1628680000000 1.0   0.02
O      2 -0.4007230000000 -0.0460010000000  0.2561450000000 1.0   0.05
O      2  0.0676430000000 -0.1147150000000  0.2050310000000 1.0   0.04
O      2 -0.1374720000000 -0.5560840000000  0.3071760000000 1.0   0.04
O      2  0.1688010000000 -0.3547950000000  0.3447420000000 1.0   0.07
O      2 -0.1548680000000 -0.3371520000000  0.5508760000000 1.0   0.01
O      2 -0.3011710000000 -0.3325870000000  0.2895830000000 1.0   0.09
O      2  0.3625280000000  0.5560840000000 -0.3071760000000 1.0   0.04
O      2  0.6688010000000  0.3547950000000 -0.3447420000000 1.0   0.07
O      2  0.3451320000000  0.3371520000000 -0.5508760000000 1.0   0.01
O      2  0.1988290000000  0.3325870000000 -0.2895830000000 1.0   0.09
F      3  0.3268180000000 -0.4054150000000  0.0295740000000 1.0   0.12
F      3 -0.1731820000000  0.4054150000000 -0.0295740000000 1.0   0.12
F      3 -0.1140830000000 -0.2906870000000 -0.1180760000000 1.0   0.06
F      3  0.3859170000000  0.2906870000000  0.1180760000000 1.0   0.06
S      4  0.3746660000000 -0.0097040000000 -0.2685330000000 1.0   0.01
S      4 -0.1253340000000  0.0097040000000  0.2685330000000 1.0   0.01
S      4 -0.1032100000000 -0.3941540000000  0.3812950000000 1.0   0.01
S      4  0.3967900000000  0.3941540000000 -0.3812950000000 1.0   0.01
Fe     5  0.3733660000000 -0.1847610000000  0.3269460000000 1.0   3.70
Fe     5 -0.1266340000000  0.1847610000000 -0.3269460000000 1.0   3.70
Fe     5 -0.4589860000000  0.4789510000000  0.1318810000000 1.0   3.75
Fe     5  0.0410140000000 -0.4789510000000 -0.1318810000000 1.0   3.75
END
