TITL 4LiFeSO4F-200804-082636-a66d3f 0.0278 524.229345 -1.51294019E+004 16.0000 16.4195 32 (Pna21) n - 1
REM
REM Run started: Tue, 04 Aug 2020 09:43:39 +0100 in /lustre/scratch/uccabz1/launch_tmp/launcher_2020-08-04-07-26-33-835962
REM CASTEP 20.1 from code version af48c487+ pr-geom-scf-spinfix Tue Jun 2 15:39:59 2020 +0100
REM Functional Perdew Burke Ernzerhof Relativity Koelling-Harmon Dispersion off
REM Cut-off 340.0000 eV Grid scale 1.7500 Gmax 16.5316 1/A FBSC none
REM MP grid 3 2 2 Offset 0.000 0.000 0.000 No. kpts 2 Spacing 0.07
REM Total runtime: 4961.96 s
REM Overall efficiency: 73.7778 %
REM
REM 4LiFeSO4F.cell (79c870615ff1d88195b1fe3fe805288c)
REM
REM compiler GCC version 4.9.2
REM options -cpp -iprefix /lustre/shared/ucl/apps/gcc/4.9.2/bin/../lib/gcc/x86_64-unknown-linux-gnu/4.9.2/ -mtune=corei7 -march=x86-64 -g -Og
REM COMMAND_LINE
REM seed -1098477235 398710697 631693938 -1685205766 -1719317167 2076459153 796274329 -2044699411 -1877679153 -226503597 -399063255 302916942
REM
REM S 3|1.8|5|6|7|30:31:32(qc=5)
REM O 2|1.5|12|13|15|20:21(qc=5)
REM Li 1|1.3|8|9|10|10U:20(qc=5)
REM Fe 3|2.2|2.0|1.0|8|9|10|40:41:32(qc=5)
REM F 2|1.6|10|12|13|20:21(qc=5)
REM 
CELL 1.54180    5.19572    9.98949   10.10024   90.00000   90.00000   90.00000
LATT -1
SFAC Li O  F  S  Fe 
Li     1  0.1937140000000 -0.4152980000000  0.2883000000000 1.0  -0.02
Li     1 -0.3062860000000  0.4152980000000 -0.2883000000000 1.0  -0.02
Li     1  0.1937140000000 -0.0847020000000 -0.2117000000000 1.0  -0.02
Li     1 -0.3062860000000  0.0847020000000  0.2117000000000 1.0  -0.02
O      2  0.5330100000000 -0.0497910000000  0.1126210000000 1.0   0.01
O      2  0.2351120000000 -0.2098740000000  0.0053620000000 1.0   0.07
O      2  0.3016880000000 -0.2142450000000  0.2500030000000 1.0   0.06
O      2  0.6308230000000 -0.2949720000000  0.0923480000000 1.0   0.08
O      2  0.0330100000000  0.0497910000000 -0.1126210000000 1.0   0.01
O      2 -0.2648880000000  0.2098740000000 -0.0053620000000 1.0   0.07
O      2 -0.1983120000000  0.2142450000000 -0.2500030000000 1.0   0.06
O      2  0.1308230000000  0.2949720000000 -0.0923480000000 1.0   0.08
O      2  0.5330100000000 -0.4502090000000 -0.3873790000000 1.0   0.01
O      2  0.2351120000000 -0.2901260000000 -0.4946380000000 1.0   0.07
O      2  0.3016880000000 -0.2857550000000 -0.2499970000000 1.0   0.06
O      2  0.6308230000000 -0.2050280000000 -0.4076520000000 1.0   0.08
O      2  0.0330100000000  0.4502090000000  0.3873790000000 1.0   0.01
O      2 -0.2648880000000  0.2901260000000  0.4946380000000 1.0   0.07
O      2 -0.1983120000000  0.2857550000000  0.2499970000000 1.0   0.06
O      2  0.1308230000000  0.2050280000000  0.4076520000000 1.0   0.08
F      3  0.1712860000000  0.5084500000000  0.1186410000000 1.0   0.10
F      3 -0.3287140000000 -0.5084500000000 -0.1186410000000 1.0   0.10
F      3  0.1712860000000 -0.0084500000000 -0.3813590000000 1.0   0.10
F      3 -0.3287140000000  0.0084500000000  0.3813590000000 1.0   0.10
S      4  0.4308170000000 -0.1872670000000  0.1152470000000 1.0   0.01
S      4 -0.0691830000000  0.1872670000000 -0.1152470000000 1.0   0.01
S      4  0.4308170000000 -0.3127330000000 -0.3847530000000 1.0   0.01
S      4 -0.0691830000000  0.3127330000000  0.3847530000000 1.0   0.01
Fe     5 -0.0652180000000  0.1301410000000 -0.4221930000000 1.0   3.69
Fe     5  0.4347820000000 -0.1301410000000  0.4221930000000 1.0   3.69
Fe     5 -0.0652180000000  0.3698590000000  0.0778070000000 1.0   3.69
Fe     5  0.4347820000000 -0.3698590000000 -0.0778070000000 1.0   3.69
END
