TITL 4LiFeSO4F-200818-155304-1b2d68 0.0356 419.285513 -1.51315378E+004 16.0000 16.2118 32 (Pma2) n - 1
REM
REM Run started: Tue, 18 Aug 2020 19:26:00 +0100 in /scratch/scratch/uccabz1/launch_tmp/launcher_2020-08-18-14-53-01-419853
REM CASTEP 19.11| from code version Version unavailable
REM Functional Perdew Burke Ernzerhof Relativity Koelling-Harmon Dispersion off
REM Cut-off 340.0000 eV Grid scale 1.7500 Gmax 16.5316 1/A FBSC none
REM MP grid 3 2 2 Offset 0.000 0.000 0.000 No. kpts 4 Spacing 0.07
REM Total runtime: 13861.4 s
REM Overall efficiency: 76.8182 %
REM
REM 4LiFeSO4F.cell (79c870615ff1d88195b1fe3fe805288c)
REM
REM compiler GCC version 4.9.2
REM options -cpp -iprefix /scratch/UCL/applications/gcc/4.9.2/bin/../lib/gcc/x86_64-unknown-linux-gnu/4.9.2/ -mtune=corei7 -march=x86-64 -g -O2
REM COMMAND_LINE
REM seed -720141860 847112107 385732251 -1632981116 170717438 -278882720 -735740105 798327061 -297829789 127931053 -1261677576 -242905247
REM
REM S 3|1.8|5|6|7|30:31:32(qc=5)
REM O 2|1.5|12|13|15|20:21(qc=5)
REM Li 1|1.3|8|9|10|10U:20(qc=5)
REM Fe 3|2.2|2.0|1.0|8|9|10|40:41:32(qc=5)
REM F 2|1.6|10|12|13|20:21(qc=5)
REM 
CELL 1.54180    5.99225    8.74820    8.74820   66.10473   90.00000   90.00000
LATT -1
SFAC Li O  F  S  Fe 
Li     1  0.2477220000000  0.3738550000000  0.4428570000000 1.0  -0.01
Li     1 -0.2477220000000 -0.4428570000000 -0.3738550000000 1.0  -0.01
Li     1 -0.2522780000000  0.0571430000000  0.1261450000000 1.0  -0.01
Li     1  0.2522780000000 -0.1261450000000 -0.0571430000000 1.0  -0.01
O      2 -0.4567080000000  0.3024050000000 -0.6065280000000 1.0   0.05
O      2 -0.2542790000000  0.0638590000000 -0.4006080000000 1.0   0.06
O      2 -0.2500480000000  0.3383430000000 -0.3808460000000 1.0   0.02
O      2 -0.0453820000000  0.2975340000000 -0.6050240000000 1.0   0.05
O      2  0.4567080000000  0.6065280000000 -0.3024050000000 1.0   0.05
O      2  0.2542790000000  0.4006080000000 -0.0638590000000 1.0   0.06
O      2  0.2500480000000  0.3808460000000 -0.3383430000000 1.0   0.02
O      2  0.0453820000000  0.6050240000000 -0.2975340000000 1.0   0.05
O      2  0.0432920000000  0.1065280000000  0.1975950000000 1.0   0.05
O      2  0.2457210000000 -0.0993920000000  0.4361410000000 1.0   0.06
O      2  0.2499520000000 -0.1191540000000  0.1616570000000 1.0   0.02
O      2  0.4546180000000  0.1050240000000  0.2024660000000 1.0   0.05
O      2 -0.0432920000000 -0.1975950000000 -0.1065280000000 1.0   0.05
O      2 -0.2457210000000 -0.4361410000000  0.0993920000000 1.0   0.06
O      2 -0.2499520000000 -0.1616570000000  0.1191540000000 1.0   0.02
O      2 -0.4546180000000 -0.2024660000000 -0.1050240000000 1.0   0.05
F      3 -0.2525320000000  0.3112630000000  0.0037950000000 1.0   0.11
F      3  0.2525320000000 -0.0037950000000 -0.3112630000000 1.0   0.11
F      3  0.2474680000000  0.4962050000000  0.1887370000000 1.0   0.11
F      3 -0.2474680000000 -0.1887370000000 -0.4962050000000 1.0   0.11
S      4 -0.2514140000000  0.2526540000000 -0.4948020000000 1.0   0.01
S      4  0.2514140000000  0.4948020000000 -0.2526540000000 1.0   0.01
S      4  0.2485860000000 -0.0051980000000  0.2473460000000 1.0   0.01
S      4 -0.2485860000000 -0.2473460000000  0.0051980000000 1.0   0.01
Fe     5 -0.0028830000000 -0.1372860000000  0.6385070000000 1.0   3.72
Fe     5  0.0028830000000 -0.6385070000000  0.1372860000000 1.0   3.72
Fe     5  0.4971170000000 -0.1385070000000 -0.3627140000000 1.0   3.72
Fe     5 -0.4971170000000  0.3627140000000  0.1385070000000 1.0   3.72
END
