TITL 4LiFeSO4F-200804-062910-6d0bda -0.0380 508.311171 -1.51307550E+004 16.0001 16.2064 32 (Pna21) n - 1
REM
REM Run started: Tue, 04 Aug 2020 08:30:02 +0100 in /lustre/scratch/uccabz1/launch_tmp/launcher_2020-08-04-05-29-07-507593
REM CASTEP 20.1 from code version af48c487+ pr-geom-scf-spinfix Tue Jun 2 15:39:59 2020 +0100
REM Functional Perdew Burke Ernzerhof Relativity Koelling-Harmon Dispersion off
REM Cut-off 340.0000 eV Grid scale 1.7500 Gmax 16.5316 1/A FBSC none
REM MP grid 3 2 2 Offset 0.000 0.000 0.000 No. kpts 2 Spacing 0.07
REM Total runtime: 7302.47 s
REM Overall efficiency: 73.6667 %
REM
REM 4LiFeSO4F.cell (79c870615ff1d88195b1fe3fe805288c)
REM
REM compiler GCC version 4.9.2
REM options -cpp -iprefix /lustre/shared/ucl/apps/gcc/4.9.2/bin/../lib/gcc/x86_64-unknown-linux-gnu/4.9.2/ -mtune=corei7 -march=x86-64 -g -Og
REM COMMAND_LINE
REM seed 1154712311 1641470816 138668338 -1397988109 -353757131 -1336357802 1861282615 553052608 1182027454 -1469261659 1847475660 736150004
REM
REM S 3|1.8|5|6|7|30:31:32(qc=5)
REM O 2|1.5|12|13|15|20:21(qc=5)
REM Li 1|1.3|8|9|10|10U:20(qc=5)
REM Fe 3|2.2|2.0|1.0|8|9|10|40:41:32(qc=5)
REM F 2|1.6|10|12|13|20:21(qc=5)
REM 
CELL 1.54180    6.34304    8.07371    9.92565   90.00000   90.00000   90.00000
LATT -1
SFAC Li O  F  S  Fe 
Li     1  0.1786680000000 -0.1122130000000  0.1969920000000 1.0  -0.02
Li     1 -0.1786680000000  0.3877870000000 -0.1969920000000 1.0  -0.02
Li     1  0.3213320000000 -0.1122130000000 -0.3030080000000 1.0  -0.02
Li     1 -0.3213320000000  0.3877870000000  0.3030080000000 1.0  -0.02
O      2 -0.0734660000000 -0.5743190000000  0.1588340000000 1.0   0.05
O      2 -0.2754190000000 -0.3145390000000  0.1608850000000 1.0   0.05
O      2 -0.1529150000000 -0.4239820000000 -0.0550670000000 1.0   0.05
O      2  0.1074570000000 -0.3130550000000  0.1038700000000 1.0   0.01
O      2  0.0734660000000 -0.0743190000000 -0.1588340000000 1.0   0.05
O      2  0.2754190000000  0.1854610000000 -0.1608850000000 1.0   0.05
O      2  0.1529150000000  0.0760180000000  0.0550670000000 1.0   0.05
O      2 -0.1074570000000  0.1869450000000 -0.1038700000000 1.0   0.01
O      2 -0.4265340000000 -0.5743190000000 -0.3411660000000 1.0   0.05
O      2 -0.2245810000000 -0.3145390000000 -0.3391150000000 1.0   0.05
O      2 -0.3470850000000 -0.4239820000000 -0.5550670000000 1.0   0.05
O      2 -0.6074570000000 -0.3130550000000 -0.3961300000000 1.0   0.01
O      2  0.4265340000000 -0.0743190000000  0.3411660000000 1.0   0.05
O      2  0.2245810000000  0.1854610000000  0.3391150000000 1.0   0.05
O      2  0.3470850000000  0.0760180000000  0.5550670000000 1.0   0.05
O      2  0.6074570000000  0.1869450000000  0.3961300000000 1.0   0.01
F      3  0.4714730000000  0.3867850000000  0.1662780000000 1.0   0.15
F      3 -0.4714730000000 -0.1132150000000 -0.1662780000000 1.0   0.15
F      3  0.0285270000000  0.3867850000000 -0.3337220000000 1.0   0.15
F      3 -0.0285270000000 -0.1132150000000  0.3337220000000 1.0   0.15
S      4 -0.0958100000000 -0.4021450000000  0.0937070000000 1.0   0.01
S      4  0.0958100000000  0.0978550000000 -0.0937070000000 1.0   0.01
S      4 -0.4041900000000 -0.4021450000000 -0.4062930000000 1.0   0.01
S      4  0.4041900000000  0.0978550000000  0.4062930000000 1.0   0.01
Fe     5 -0.2019120000000 -0.1979890000000 -0.1516510000000 1.0   3.70
Fe     5  0.2019120000000  0.3020110000000  0.1516510000000 1.0   3.70
Fe     5 -0.2980880000000 -0.1979890000000  0.3483490000000 1.0   3.70
Fe     5  0.2980880000000  0.3020110000000 -0.3483490000000 1.0   3.70
END
