TITL 4LiFeSO4F-200804-081644-7777d1 -0.0341 486.977217 -1.51305222E+004 16.0000 16.3623 32 (P2) n - 1
REM
REM Run started: Tue, 04 Aug 2020 12:14:18 +0100 in /lustre/scratch/uccabz1/launch_tmp/launcher_2020-08-04-07-16-40-320163
REM CASTEP 20.1 from code version af48c487+ pr-geom-scf-spinfix Tue Jun 2 15:39:59 2020 +0100
REM Functional Perdew Burke Ernzerhof Relativity Koelling-Harmon Dispersion off
REM Cut-off 340.0000 eV Grid scale 1.7500 Gmax 16.5316 1/A FBSC none
REM MP grid 2 2 2 Offset 0.000 0.000 0.000 No. kpts 2 Spacing 0.07
REM Total runtime: 15241.3 s
REM Overall efficiency: 77.9231 %
REM
REM 4LiFeSO4F.cell (79c870615ff1d88195b1fe3fe805288c)
REM
REM compiler GCC version 4.9.2
REM options -cpp -iprefix /lustre/shared/ucl/apps/gcc/4.9.2/bin/../lib/gcc/x86_64-unknown-linux-gnu/4.9.2/ -mtune=corei7 -march=x86-64 -g -Og
REM COMMAND_LINE
REM seed -557564551 -1256427519 -140151932 1590473837 -515044778 1765049792 1107881086 -41236464 831885221 989684791 -872846743 -558993519
REM
REM S 3|1.8|5|6|7|30:31:32(qc=5)
REM O 2|1.5|12|13|15|20:21(qc=5)
REM Li 1|1.3|8|9|10|10U:20(qc=5)
REM Fe 3|2.2|2.0|1.0|8|9|10|40:41:32(qc=5)
REM F 2|1.6|10|12|13|20:21(qc=5)
REM 
CELL 1.54180    7.68366    7.74023    8.22505   95.42806   90.00000   90.00000
LATT -1
SFAC Li O  F  S  Fe 
Li     1 -0.3894990000000 -0.1971020000000  0.1081690000000 1.0  -0.03
Li     1 -0.3894990000000  0.1971020000000 -0.1081690000000 1.0  -0.03
Li     1  0.1866760000000  0.2949130000000  0.1684050000000 1.0  -0.01
Li     1  0.1866760000000 -0.2949130000000 -0.1684050000000 1.0  -0.01
O      2 -0.2409860000000  0.0350300000000 -0.2369200000000 1.0   0.06
O      2 -0.2611310000000 -0.2445590000000 -0.4130580000000 1.0   0.08
O      2 -0.2916750000000 -0.2432840000000 -0.1208200000000 1.0   0.05
O      2 -0.0036400000000 -0.1743700000000 -0.2447080000000 1.0   0.01
O      2 -0.2409860000000 -0.0350300000000  0.2369200000000 1.0   0.06
O      2 -0.2611310000000  0.2445590000000  0.4130580000000 1.0   0.08
O      2 -0.2916750000000  0.2432840000000  0.1208200000000 1.0   0.05
O      2 -0.0036400000000  0.1743700000000  0.2447080000000 1.0   0.01
O      2  0.1062680000000 -0.2980900000000  0.0545590000000 1.0   0.02
O      2  0.1136590000000 -0.2179150000000  0.3497400000000 1.0   0.12
O      2  0.3719060000000 -0.1632990000000  0.1807750000000 1.0   0.01
O      2  0.2915870000000 -0.4600590000000  0.2320050000000 1.0   0.07
O      2  0.1062680000000  0.2980900000000 -0.0545590000000 1.0   0.02
O      2  0.1136590000000  0.2179150000000 -0.3497400000000 1.0   0.12
O      2  0.3719060000000  0.1632990000000 -0.1807750000000 1.0   0.01
O      2  0.2915870000000  0.4600590000000 -0.2320050000000 1.0   0.07
F      3 -0.3156530000000  0.3762750000000 -0.2550120000000 1.0   0.09
F      3 -0.3156530000000 -0.3762750000000  0.2550120000000 1.0   0.09
F      3  0.3848960000000  0.2310720000000  0.2737040000000 1.0   0.15
F      3  0.3848960000000 -0.2310720000000 -0.2737040000000 1.0   0.15
S      4 -0.1929710000000 -0.1566990000000 -0.2487710000000 1.0   0.01
S      4 -0.1929710000000  0.1566990000000  0.2487710000000 1.0   0.01
S      4  0.2228880000000 -0.2806550000000  0.1981970000000 1.0   0.01
S      4  0.2228880000000  0.2806550000000 -0.1981970000000 1.0   0.01
Fe     5  0.5268150000000 -0.4240330000000 -0.2668800000000 1.0   3.69
Fe     5  0.5268150000000  0.4240330000000  0.2668800000000 1.0   3.69
Fe     5 -0.1298290000000 -0.2029570000000  0.3861350000000 1.0   3.68
Fe     5 -0.1298290000000  0.2029570000000 -0.3861350000000 1.0   3.68
END
