TITL 4LiFeSO4F-200804-065813-464791 0.0082 448.769331 -1.51317369E+004 16.0000 16.2323 32 (P2/c) n - 1
REM
REM Run started: Tue, 04 Aug 2020 11:58:10 +0100 in /lustre/scratch/uccabz1/launch_tmp/launcher_2020-08-04-05-58-10-502329
REM CASTEP 20.1 from code version af48c487+ pr-geom-scf-spinfix Tue Jun 2 15:39:59 2020 +0100
REM Functional Perdew Burke Ernzerhof Relativity Koelling-Harmon Dispersion off
REM Cut-off 340.0000 eV Grid scale 1.7500 Gmax 16.5316 1/A FBSC none
REM MP grid 3 3 2 Offset 0.000 0.000 0.000 No. kpts 6 Spacing 0.07
REM Total runtime: 18498.2 s
REM Overall efficiency: 76.5 %
REM
REM 4LiFeSO4F.cell (79c870615ff1d88195b1fe3fe805288c)
REM
REM compiler GCC version 4.9.2
REM options -cpp -iprefix /lustre/shared/ucl/apps/gcc/4.9.2/bin/../lib/gcc/x86_64-unknown-linux-gnu/4.9.2/ -mtune=corei7 -march=x86-64 -g -Og
REM COMMAND_LINE
REM seed 123563149 -290804297 545888905 -903759392 222395975 836212052 162623452 1914073441 1863839657 -1114590425 865815670 2030744568
REM
REM S 3|1.8|5|6|7|30:31:32(qc=5)
REM O 2|1.5|12|13|15|20:21(qc=5)
REM Li 1|1.3|8|9|10|10U:20(qc=5)
REM Fe 3|2.2|2.0|1.0|8|9|10|40:41:32(qc=5)
REM F 2|1.6|10|12|13|20:21(qc=5)
REM 
CELL 1.54180    5.21154    6.24021   15.20582  114.83751   90.00000   90.00000
LATT -1
SFAC Li O  F  S  Fe 
Li     1 -0.0154420000000 -0.2502910000000 -0.0034260000000 1.0  -0.02
Li     1 -0.0154420000000  0.2502910000000 -0.4965740000000 1.0  -0.02
Li     1  0.0154420000000  0.2502910000000  0.0034260000000 1.0  -0.02
Li     1  0.0154420000000 -0.2502910000000  0.4965740000000 1.0  -0.02
O      2  0.5713370000000 -0.0646650000000 -0.3724510000000 1.0   0.07
O      2  0.2994200000000  0.2488120000000 -0.2537890000000 1.0   0.06
O      2  0.1809250000000  0.0750670000000 -0.4254030000000 1.0   0.01
O      2  0.5739650000000  0.3190490000000 -0.3726610000000 1.0   0.07
O      2  0.5713370000000  0.0646650000000 -0.1275490000000 1.0   0.07
O      2  0.2994200000000 -0.2488120000000 -0.2462110000000 1.0   0.06
O      2  0.1809250000000 -0.0750670000000 -0.0745970000000 1.0   0.01
O      2  0.5739650000000 -0.3190490000000 -0.1273390000000 1.0   0.07
O      2 -0.5713370000000  0.0646650000000  0.3724510000000 1.0   0.07
O      2 -0.2994200000000 -0.2488120000000  0.2537890000000 1.0   0.06
O      2 -0.1809250000000 -0.0750670000000  0.4254030000000 1.0   0.01
O      2 -0.5739650000000 -0.3190490000000  0.3726610000000 1.0   0.07
O      2 -0.5713370000000 -0.0646650000000  0.1275490000000 1.0   0.07
O      2 -0.2994200000000  0.2488120000000  0.2462110000000 1.0   0.06
O      2 -0.1809250000000  0.0750670000000  0.0745970000000 1.0   0.01
O      2 -0.5739650000000  0.3190490000000  0.1273390000000 1.0   0.07
F      3  0.2431130000000 -0.5060580000000 -0.0065260000000 1.0   0.09
F      3  0.2431130000000  0.5060580000000  0.5065260000000 1.0   0.09
F      3 -0.2431130000000  0.5060580000000  0.0065260000000 1.0   0.09
F      3 -0.2431130000000 -0.5060580000000 -0.5065260000000 1.0   0.09
S      4  0.4005000000000  0.1450320000000 -0.3556110000000 1.0   0.02
S      4  0.4005000000000 -0.1450320000000 -0.1443890000000 1.0   0.02
S      4 -0.4005000000000 -0.1450320000000  0.3556110000000 1.0   0.02
S      4 -0.4005000000000  0.1450320000000  0.1443890000000 1.0   0.02
Fe     5  0.4903000000000 -0.3770110000000 -0.3768140000000 1.0   3.70
Fe     5  0.4903000000000  0.3770110000000 -0.1231860000000 1.0   3.70
Fe     5 -0.4903000000000  0.3770110000000  0.3768140000000 1.0   3.70
Fe     5 -0.4903000000000 -0.3770110000000  0.1231860000000 1.0   3.70
END
