TITL 4LiFeSO4F-200804-062556-e93763 -0.0706 442.413165 -1.51304738E+004 16.0000 16.1868 32 (C2) n - 1
REM
REM Run started: Tue, 04 Aug 2020 23:30:40 +0100 in /lustre/scratch/uccabz1/launch_tmp/launcher_2020-08-04-05-25-54-038028
REM CASTEP 20.1 from code version af48c487+ pr-geom-scf-spinfix Tue Jun 2 15:39:59 2020 +0100
REM Functional Perdew Burke Ernzerhof Relativity Koelling-Harmon Dispersion off
REM Cut-off 340.0000 eV Grid scale 1.7500 Gmax 16.5316 1/A FBSC none
REM MP grid 2 3 3 Offset 0.000 0.000 0.000 No. kpts 6 Spacing 0.07
REM Total runtime: 68682.1 s
REM Overall efficiency: 73.9167 %
REM
REM 4LiFeSO4F.cell (79c870615ff1d88195b1fe3fe805288c)
REM
REM compiler GCC version 4.9.2
REM options -cpp -iprefix /lustre/shared/ucl/apps/gcc/4.9.2/bin/../lib/gcc/x86_64-unknown-linux-gnu/4.9.2/ -mtune=corei7 -march=x86-64 -g -Og
REM COMMAND_LINE
REM seed 1802991265 1773298450 1431481619 -611576230 -820215372 -414327626 1666634822 -1450304032 1636367368 -905213540 55455499 -791314225
REM
REM S 3|1.8|5|6|7|30:31:32(qc=5)
REM O 2|1.5|12|13|15|20:21(qc=5)
REM Li 1|1.3|8|9|10|10U:20(qc=5)
REM Fe 3|2.2|2.0|1.0|8|9|10|40:41:32(qc=5)
REM F 2|1.6|10|12|13|20:21(qc=5)
REM 
CELL 1.54180    9.25158    7.49216    7.49216   89.66686   68.20103   68.20103
LATT -1
SFAC Li O  F  S  Fe 
Li     1  0.3959600000000  0.1371920000000  0.5663920000000 1.0  -0.01
Li     1 -0.3959600000000 -0.5663920000000 -0.1371920000000 1.0  -0.01
Li     1 -0.2948390000000 -0.0249770000000 -0.0494040000000 1.0  -0.01
Li     1  0.2948390000000  0.0494040000000  0.0249770000000 1.0  -0.01
O      2 -0.4879890000000  0.5077040000000  0.1667970000000 1.0   0.06
O      2 -0.4836650000000  0.2688330000000  0.3971630000000 1.0   0.01
O      2 -0.2588340000000  0.3977560000000  0.2849160000000 1.0   0.07
O      2 -0.2747670000000  0.1787950000000  0.0563440000000 1.0   0.01
O      2  0.4879890000000 -0.1667970000000 -0.5077040000000 1.0   0.06
O      2  0.4836650000000 -0.3971630000000 -0.2688330000000 1.0   0.01
O      2  0.2588340000000 -0.2849160000000 -0.3977560000000 1.0   0.07
O      2  0.2747670000000 -0.0563440000000 -0.1787950000000 1.0   0.01
O      2  0.0788030000000  0.3859630000000  0.2965930000000 1.0   0.06
O      2  0.3083920000000  0.2966680000000 -0.0302860000000 1.0   0.01
O      2  0.1904720000000  0.6265510000000  0.1508180000000 1.0   0.07
O      2  0.0150370000000  0.5291140000000  0.0323400000000 1.0   0.07
O      2 -0.0788030000000 -0.2965930000000 -0.3859630000000 1.0   0.06
O      2 -0.3083920000000  0.0302860000000 -0.2966680000000 1.0   0.01
O      2 -0.1904720000000 -0.1508180000000 -0.6265510000000 1.0   0.07
O      2 -0.0150370000000 -0.0323400000000 -0.5291140000000 1.0   0.07
F      3  0.1655620000000  0.2730250000000 -0.3718040000000 1.0   0.10
F      3 -0.1655620000000  0.3718040000000 -0.2730250000000 1.0   0.10
F      3  0.2731750000000 -0.0206910000000  0.2625880000000 1.0   0.09
F      3 -0.2731750000000 -0.2625880000000  0.0206910000000 1.0   0.09
S      4 -0.3764730000000  0.3316030000000  0.2312640000000 1.0   0.01
S      4  0.3764730000000 -0.2312640000000 -0.3316030000000 1.0   0.01
S      4  0.1536610000000  0.4562310000000  0.1100000000000 1.0   0.02
S      4 -0.1536610000000 -0.1100000000000 -0.4562310000000 1.0   0.02
Fe     5  0.0413180000000  0.2019490000000  0.4799780000000 1.0   3.71
Fe     5 -0.0413180000000 -0.4799780000000 -0.2019490000000 1.0   3.71
Fe     5 -0.2737560000000 -0.3282810000000  0.2848110000000 1.0   3.72
Fe     5  0.2737560000000 -0.2848110000000  0.3282810000000 1.0   3.72
END
