TITL 4LiFeSO4F-200804-073520-ee6d41 0.0285 555.492484 -1.51196988E+004 15.9936 17.2318 32 (Cm) n - 1
REM
REM Run started: Tue, 04 Aug 2020 19:52:28 +0100 in /lustre/scratch/uccabz1/launch_tmp/launcher_2020-08-04-06-35-13-577974
REM CASTEP 20.1 from code version af48c487+ pr-geom-scf-spinfix Tue Jun 2 15:39:59 2020 +0100
REM Functional Perdew Burke Ernzerhof Relativity Koelling-Harmon Dispersion off
REM Cut-off 340.0000 eV Grid scale 1.7500 Gmax 16.5316 1/A FBSC none
REM MP grid 2 3 2 Offset 0.000 0.000 0.000 No. kpts 6 Spacing 0.07
REM Total runtime: 49471.3 s
REM Overall efficiency: 76.5 %
REM
REM 4LiFeSO4F.cell (79c870615ff1d88195b1fe3fe805288c)
REM
REM compiler GCC version 4.9.2
REM options -cpp -iprefix /lustre/shared/ucl/apps/gcc/4.9.2/bin/../lib/gcc/x86_64-unknown-linux-gnu/4.9.2/ -mtune=corei7 -march=x86-64 -g -Og
REM COMMAND_LINE
REM seed -1750128366 -1487947033 864308152 -1914072652 -484821052 1566183371 -175555432 -731860440 -1470646029 1457881204 1144686194 710786899
REM
REM S 3|1.8|5|6|7|30:31:32(qc=5)
REM O 2|1.5|12|13|15|20:21(qc=5)
REM Li 1|1.3|8|9|10|10U:20(qc=5)
REM Fe 3|2.2|2.0|1.0|8|9|10|40:41:32(qc=5)
REM F 2|1.6|10|12|13|20:21(qc=5)
REM 
CELL 1.54180    8.51894    7.74206    9.38800  114.35180   80.88309   90.00000
LATT -1
SFAC Li O  F  S  Fe 
Li     1 -0.0981750000000  0.4664310000000  0.4573740000000 1.0   0.01
Li     1 -0.0981750000000 -0.0090560000000  0.4573740000000 1.0   0.01
Li     1  0.2470100000000 -0.3124180000000 -0.6248360000000 1.0   0.02
Li     1  0.3472360000000  0.4320320000000  0.8640640000000 1.0  -0.01
O      2 -0.6300390000000  0.4324270000000  0.2875810000000 1.0   0.49
O      2 -0.2662450000000  0.3549760000000  0.0330550000000 1.0  -0.03
O      2 -0.6776320000000  0.1432370000000 -0.0102140000000 1.0   0.08
O      2 -0.2970240000000  0.3513590000000  0.3814150000000 1.0   0.01
O      2 -0.6300390000000 -0.1448460000000  0.2875810000000 1.0   0.49
O      2 -0.2662450000000 -0.3219210000000  0.0330550000000 1.0  -0.03
O      2 -0.6776320000000 -0.1534520000000 -0.0102140000000 1.0   0.08
O      2 -0.2970240000000  0.0300570000000  0.3814150000000 1.0   0.01
O      2  0.2134220000000 -0.4924580000000 -0.3008120000000 1.0   0.01
O      2  0.5333220000000 -0.2433840000000 -0.2027550000000 1.0   0.15
O      2 -0.1317860000000 -0.4589020000000 -0.3284750000000 1.0   0.63
O      2  0.0643860000000 -0.5192110000000 -0.6895760000000 1.0   0.32
O      2  0.2134220000000  0.1916460000000 -0.3008120000000 1.0   0.01
O      2  0.5333220000000  0.0406290000000 -0.2027550000000 1.0   0.15
O      2 -0.1317860000000  0.1304270000000 -0.3284750000000 1.0   0.63
O      2  0.0643860000000 -0.1703640000000 -0.6895760000000 1.0   0.32
F      3 -0.4283800000000  0.3924260000000  0.7848520000000 1.0   0.15
F      3  0.1547430000000  0.1265620000000  0.2531240000000 1.0   0.08
F      3  0.2428330000000 -0.4683220000000 -0.9366440000000 1.0   0.08
F      3 -0.4332210000000  0.0236300000000  0.0472600000000 1.0   0.00
S      4  0.1485650000000  0.3180050000000  0.6360110000000 1.0   0.02
S      4 -0.3880990000000  0.1859950000000  0.3719910000000 1.0   0.01
S      4 -0.2095690000000 -0.4437830000000 -0.8875660000000 1.0  -0.36
S      4  0.4409670000000 -0.0413480000000 -0.0826950000000 1.0   0.07
Fe     5  0.2221630000000 -0.1443320000000  0.1909730000000 1.0   2.62
Fe     5  0.2221630000000  0.3353040000000  0.1909730000000 1.0   2.62
Fe     5 -0.2961370000000 -0.3780890000000 -0.1810600000000 1.0   3.68
Fe     5 -0.2961370000000  0.1970290000000 -0.1810600000000 1.0   3.68
END
