TITL 4LiFeSO4F-200804-073350-b85a5e -0.0208 438.261633 -1.51303846E+004 16.0000 16.1508 32 (P-1) n - 1
REM
REM Run started: Tue, 04 Aug 2020 23:30:30 +0100 in /lustre/scratch/uccabz1/launch_tmp/launcher_2020-08-04-16-53-41-316150
REM CASTEP 20.1 from code version af48c487+ pr-geom-scf-spinfix Tue Jun 2 15:39:59 2020 +0100
REM Functional Perdew Burke Ernzerhof Relativity Koelling-Harmon Dispersion off
REM Cut-off 340.0000 eV Grid scale 1.7500 Gmax 16.5316 1/A FBSC none
REM MP grid 3 2 2 Offset 0.000 0.000 0.000 No. kpts 6 Spacing 0.07
REM Total runtime: 22077.9 s
REM Overall efficiency: 69.75 %
REM
REM
REM
REM compiler GCC version 4.9.2
REM options -cpp -iprefix /lustre/shared/ucl/apps/gcc/4.9.2/bin/../lib/gcc/x86_64-unknown-linux-gnu/4.9.2/ -mtune=corei7 -march=x86-64 -g -Og
REM COMMAND_LINE
REM seed 960250966 1644931751 -2085936213 1299752657 -914167652 1525994831 1394454209 -782308389 1001421652 -623724435 354060917 1944811900
REM
REM S 3|1.8|5|6|7|30:31:32(qc=5)
REM O 2|1.5|12|13|15|20:21(qc=5)
REM Li 1|1.3|8|9|10|10U:20(qc=5)
REM Fe 3|2.2|2.0|1.0|8|9|10|40:41:32(qc=5)
REM F 2|1.6|10|12|13|20:21(qc=5)
REM 
CELL 1.54180    5.81186    7.81163   10.39527   89.61667  101.34737   71.75021
LATT -1
SFAC Li O  F  S  Fe 
Li     1  0.3314230000000  0.0535620000000 -0.1949560000000 1.0  -0.01
Li     1 -0.3314230000000 -0.0535620000000  0.1949560000000 1.0  -0.01
Li     1  0.0951450000000 -0.3780260000000  0.1445070000000 1.0  -0.02
Li     1 -0.0951450000000  0.3780260000000 -0.1445070000000 1.0  -0.02
O      2  0.2473660000000 -0.3037790000000  0.3298470000000 1.0   0.02
O      2  0.3623760000000 -0.2070030000000  0.5527740000000 1.0   0.07
O      2  0.2492670000000 -0.4835950000000  0.5295060000000 1.0   0.09
O      2 -0.0719630000000 -0.1868950000000  0.4620930000000 1.0   0.06
O      2 -0.2473660000000  0.3037790000000 -0.3298470000000 1.0   0.02
O      2 -0.3623760000000  0.2070030000000 -0.5527740000000 1.0   0.07
O      2 -0.2492670000000  0.4835950000000 -0.5295060000000 1.0   0.09
O      2  0.0719630000000  0.1868950000000 -0.4620930000000 1.0   0.06
O      2  0.0165900000000  0.3062670000000  0.2646890000000 1.0   0.13
O      2  0.3289660000000  0.0535510000000  0.1990690000000 1.0   0.01
O      2  0.0078460000000  0.2732730000000  0.0298770000000 1.0   0.01
O      2 -0.1055600000000  0.0574100000000  0.1573420000000 1.0   0.01
O      2 -0.0165900000000 -0.3062670000000 -0.2646890000000 1.0   0.13
O      2 -0.3289660000000 -0.0535510000000 -0.1990690000000 1.0   0.01
O      2 -0.0078460000000 -0.2732730000000 -0.0298770000000 1.0   0.01
O      2  0.1055600000000 -0.0574100000000 -0.1573420000000 1.0   0.01
F      3  0.2283300000000  0.3080510000000 -0.1970280000000 1.0   0.10
F      3 -0.2283300000000 -0.3080510000000  0.1970280000000 1.0   0.10
F      3 -0.5956430000000  0.4405890000000  0.1699460000000 1.0   0.14
F      3  0.5956430000000 -0.4405890000000 -0.1699460000000 1.0   0.14
S      4  0.1942160000000 -0.2905060000000  0.4627390000000 1.0   0.01
S      4 -0.1942160000000  0.2905060000000 -0.4627390000000 1.0   0.01
S      4  0.0643120000000  0.1629330000000  0.1543580000000 1.0   0.00
S      4 -0.0643120000000 -0.1629330000000 -0.1543580000000 1.0   0.00
Fe     5 -0.2726440000000 -0.2807050000000 -0.4276170000000 1.0   3.63
Fe     5  0.2726440000000  0.2807050000000  0.4276170000000 1.0   3.63
Fe     5  0.3193710000000 -0.4950590000000 -0.2590950000000 1.0   3.76
Fe     5 -0.3193710000000  0.4950590000000  0.2590950000000 1.0   3.76
END
