TITL 4LiFeSO4F-200804-071854-0b46f8 0.0208 514.141842 -1.51298458E+004 16.0000 16.2674 32 (Aea2) n - 1
REM
REM Run started: Tue, 04 Aug 2020 09:32:58 +0100 in /lustre/scratch/uccabz1/launch_tmp/launcher_2020-08-04-06-18-46-420447
REM CASTEP 20.1 from code version af48c487+ pr-geom-scf-spinfix Tue Jun 2 15:39:59 2020 +0100
REM Functional Perdew Burke Ernzerhof Relativity Koelling-Harmon Dispersion off
REM Cut-off 340.0000 eV Grid scale 1.7500 Gmax 16.5316 1/A FBSC none
REM MP grid 3 3 1 Offset 0.000 0.000 0.000 No. kpts 4 Spacing 0.07
REM Total runtime: 8504.61 s
REM Overall efficiency: 78.8571 %
REM
REM 4LiFeSO4F.cell (79c870615ff1d88195b1fe3fe805288c)
REM
REM compiler GCC version 4.9.2
REM options -cpp -iprefix /lustre/shared/ucl/apps/gcc/4.9.2/bin/../lib/gcc/x86_64-unknown-linux-gnu/4.9.2/ -mtune=corei7 -march=x86-64 -g -Og
REM COMMAND_LINE
REM seed -1700363082 -1860337093 -976411662 -937247335 -1817194272 1293191575 382471521 -1676929234 -1950996025 1266269651 -898890671 -165980231
REM
REM S 3|1.8|5|6|7|30:31:32(qc=5)
REM O 2|1.5|12|13|15|20:21(qc=5)
REM Li 1|1.3|8|9|10|10U:20(qc=5)
REM Fe 3|2.2|2.0|1.0|8|9|10|40:41:32(qc=5)
REM F 2|1.6|10|12|13|20:21(qc=5)
REM 
CELL 1.54180    5.68908    5.68908   15.88781   90.00000   90.00000   89.00954
LATT -1
SFAC Li O  F  S  Fe 
Li     1  0.3210660000000  0.2546420000000 -0.1427650000000 1.0  -0.02
Li     1 -0.2546420000000 -0.3210660000000  0.1427650000000 1.0  -0.02
Li     1  0.2453580000000  0.1789340000000  0.3572350000000 1.0  -0.02
Li     1 -0.1789340000000 -0.2453580000000 -0.3572350000000 1.0  -0.02
O      2 -0.2752540000000  0.0588980000000 -0.4082910000000 1.0   0.02
O      2 -0.5188000000000 -0.2789400000000 -0.3957060000000 1.0   0.05
O      2 -0.5595880000000 -0.0231680000000 -0.5232210000000 1.0   0.05
O      2 -0.7059470000000  0.1192850000000 -0.3879340000000 1.0   0.07
O      2 -0.0588980000000  0.2752540000000  0.4082910000000 1.0   0.02
O      2  0.2789400000000  0.5188000000000  0.3957060000000 1.0   0.05
O      2  0.0231680000000  0.5595880000000  0.5232210000000 1.0   0.05
O      2 -0.1192850000000  0.7059470000000  0.3879340000000 1.0   0.07
O      2 -0.5588980000000 -0.2247460000000  0.0917090000000 1.0   0.02
O      2 -0.2210600000000  0.0188000000000  0.1042940000000 1.0   0.05
O      2 -0.4768320000000  0.0595880000000 -0.0232210000000 1.0   0.05
O      2 -0.6192850000000  0.2059470000000  0.1120660000000 1.0   0.07
O      2  0.2247460000000  0.5588980000000 -0.0917090000000 1.0   0.02
O      2 -0.0188000000000  0.2210600000000 -0.1042940000000 1.0   0.05
O      2 -0.0595880000000  0.4768320000000  0.0232210000000 1.0   0.05
O      2 -0.2059470000000  0.6192850000000 -0.1120660000000 1.0   0.07
F      3 -0.4510570000000  0.1076860000000 -0.2015630000000 1.0   0.11
F      3 -0.1076860000000  0.4510570000000  0.2015630000000 1.0   0.11
F      3  0.3923140000000 -0.0489430000000  0.2984370000000 1.0   0.11
F      3  0.0489430000000 -0.3923140000000 -0.2984370000000 1.0   0.11
S      4 -0.5122080000000 -0.0256570000000 -0.4298780000000 1.0   0.01
S      4  0.0256570000000  0.5122080000000  0.4298780000000 1.0   0.01
S      4 -0.4743430000000  0.0122080000000  0.0701220000000 1.0   0.01
S      4 -0.0122080000000  0.4743430000000 -0.0701220000000 1.0   0.01
Fe     5 -0.4574760000000 -0.2471250000000  0.3803650000000 1.0   3.71
Fe     5  0.2471250000000  0.4574760000000 -0.3803650000000 1.0   3.71
Fe     5 -0.2528750000000 -0.0425240000000 -0.1196350000000 1.0   3.71
Fe     5  0.0425240000000  0.2528750000000  0.1196350000000 1.0   3.71
END
