TITL 4LiFeSO4F-200804-102513-a6eb40 -0.0153 370.640849 -1.51318827E+004 16.0000 16.2023 32 (P2/m) n - 1
REM
REM Run started: Wed, 05 Aug 2020 02:08:39 +0100 in /lustre/scratch/uccabz1/launch_tmp/launcher_2020-08-04-09-25-11-879421
REM CASTEP 20.1 from code version af48c487+ pr-geom-scf-spinfix Tue Jun 2 15:39:59 2020 +0100
REM Functional Perdew Burke Ernzerhof Relativity Koelling-Harmon Dispersion off
REM Cut-off 340.0000 eV Grid scale 1.7500 Gmax 16.5316 1/A FBSC none
REM MP grid 3 2 2 Offset 0.000 0.000 0.000 No. kpts 4 Spacing 0.07
REM Total runtime: 60033.9 s
REM Overall efficiency: 73.6667 %
REM
REM 4LiFeSO4F.cell (79c870615ff1d88195b1fe3fe805288c)
REM
REM compiler GCC version 4.9.2
REM options -cpp -iprefix /lustre/shared/ucl/apps/gcc/4.9.2/bin/../lib/gcc/x86_64-unknown-linux-gnu/4.9.2/ -mtune=corei7 -march=x86-64 -g -Og
REM COMMAND_LINE
REM seed 1537225447 -747850948 -1891088275 -205232841 2015856230 -273500922 -1328548822 -1728978571 71353834 -2091571824 2055896010 869683453
REM
REM S 3|1.8|5|6|7|30:31:32(qc=5)
REM O 2|1.5|12|13|15|20:21(qc=5)
REM Li 1|1.3|8|9|10|10U:20(qc=5)
REM Fe 3|2.2|2.0|1.0|8|9|10|40:41:32(qc=5)
REM F 2|1.6|10|12|13|20:21(qc=5)
REM 
CELL 1.54180    5.97471    7.95567    8.07117  104.96088   90.00000   90.00000
LATT -1
SFAC Li O  F  S  Fe 
Li     1  0.4084620000000 -0.1454400000000  0.0743530000000 1.0  -0.01
Li     1  0.4084620000000  0.1454400000000 -0.0743530000000 1.0  -0.01
Li     1 -0.0918770000000 -0.1046300000000 -0.3706650000000 1.0  -0.01
Li     1 -0.0918770000000  0.1046300000000  0.3706650000000 1.0  -0.01
O      2 -0.0949350000000  0.4540500000000  0.2107030000000 1.0   0.11
O      2 -0.0945550000000  0.1371610000000  0.1387280000000 1.0   0.02
O      2  0.1109750000000  0.2905030000000 -0.0445270000000 1.0   0.05
O      2 -0.2996890000000  0.2909930000000 -0.0449080000000 1.0   0.04
O      2 -0.0949350000000 -0.4540500000000 -0.2107030000000 1.0   0.11
O      2 -0.0945550000000 -0.1371610000000 -0.1387280000000 1.0   0.02
O      2  0.1109750000000 -0.2905030000000  0.0445270000000 1.0   0.05
O      2 -0.2996890000000 -0.2909930000000  0.0449080000000 1.0   0.04
O      2  0.4048280000000  0.4523670000000  0.2837140000000 1.0   0.06
O      2  0.6146060000000  0.2742840000000  0.4383190000000 1.0   0.05
O      2  0.4055630000000  0.1315330000000  0.1775170000000 1.0   0.02
O      2  0.1964330000000  0.2736890000000  0.4385230000000 1.0   0.05
O      2  0.4048280000000 -0.4523670000000 -0.2837140000000 1.0   0.06
O      2  0.6146060000000 -0.2742840000000 -0.4383190000000 1.0   0.05
O      2  0.4055630000000 -0.1315330000000 -0.1775170000000 1.0   0.02
O      2  0.1964330000000 -0.2736890000000 -0.4385230000000 1.0   0.05
F      3 -0.0939530000000 -0.1390380000000  0.3703340000000 1.0   0.09
F      3 -0.0939530000000  0.1390380000000 -0.3703340000000 1.0   0.09
F      3  0.4051000000000 -0.1992390000000  0.2859250000000 1.0   0.10
F      3  0.4051000000000  0.1992390000000 -0.2859250000000 1.0   0.10
S      4 -0.0944450000000  0.2839790000000  0.0613150000000 1.0   0.01
S      4 -0.0944450000000 -0.2839790000000 -0.0613150000000 1.0   0.01
S      4  0.4052990000000  0.2792940000000  0.3339990000000 1.0   0.01
S      4  0.4052990000000 -0.2792940000000 -0.3339990000000 1.0   0.01
Fe     5 -0.3195560000000 -0.3525740000000  0.2941220000000 1.0   3.70
Fe     5 -0.3195560000000  0.3525740000000 -0.2941220000000 1.0   3.70
Fe     5  0.1293640000000  0.3526820000000 -0.2925470000000 1.0   3.70
Fe     5  0.1293640000000 -0.3526820000000  0.2925470000000 1.0   3.70
END
