TITL 4LiFeSO4F-200804-073649-8f64bf 0.0175 468.039098 -1.51313293E+004 16.0000 16.2468 32 (Cc) n - 1
REM
REM Run started: Tue, 04 Aug 2020 22:25:59 +0100 in /lustre/scratch/uccabz1/launch_tmp/launcher_2020-08-04-06-36-47-199493
REM CASTEP 20.1 from code version af48c487+ pr-geom-scf-spinfix Tue Jun 2 15:39:59 2020 +0100
REM Functional Perdew Burke Ernzerhof Relativity Koelling-Harmon Dispersion off
REM Cut-off 340.0000 eV Grid scale 1.7500 Gmax 16.5316 1/A FBSC none
REM MP grid 3 2 2 Offset 0.000 0.000 0.000 No. kpts 6 Spacing 0.07
REM Total runtime: 54123.4 s
REM Overall efficiency: 73.3077 %
REM
REM 4LiFeSO4F.cell (79c870615ff1d88195b1fe3fe805288c)
REM
REM compiler GCC version 4.9.2
REM options -cpp -iprefix /lustre/shared/ucl/apps/gcc/4.9.2/bin/../lib/gcc/x86_64-unknown-linux-gnu/4.9.2/ -mtune=corei7 -march=x86-64 -g -Og
REM COMMAND_LINE
REM seed 77820467 -1357630895 1685867598 -1406830851 1983104205 338049707 851490810 -1171859604 234968884 -1129188682 -1933416763 -55941680
REM
REM S 3|1.8|5|6|7|30:31:32(qc=5)
REM O 2|1.5|12|13|15|20:21(qc=5)
REM Li 1|1.3|8|9|10|10U:20(qc=5)
REM Fe 3|2.2|2.0|1.0|8|9|10|40:41:32(qc=5)
REM F 2|1.6|10|12|13|20:21(qc=5)
REM 
CELL 1.54180    7.62064    7.44836    9.28609  101.98868  114.22531   90.00000
LATT -1
SFAC Li O  F  S  Fe 
Li     1 -0.4881470000000 -0.1335020000000 -0.2199020000000 1.0  -0.01
Li     1  0.2682460000000  0.3664980000000 -0.2199020000000 1.0  -0.01
Li     1 -0.4840350000000  0.3616810000000 -0.6422640000000 1.0  -0.01
Li     1 -0.1582280000000 -0.1383190000000 -0.6422640000000 1.0  -0.01
O      2  0.0296170000000 -0.3161800000000  0.4829770000000 1.0   0.05
O      2  0.0936690000000 -0.6222200000000  0.5527440000000 1.0   0.05
O      2 -0.2348390000000 -0.5166410000000  0.4662490000000 1.0   0.01
O      2  0.0271600000000 -0.3797450000000  0.7326160000000 1.0   0.06
O      2 -0.5466400000000  0.1838200000000  0.4829770000000 1.0   0.05
O      2 -0.5409250000000 -0.1222200000000  0.5527440000000 1.0   0.05
O      2 -0.2989120000000 -0.0166410000000  0.4662490000000 1.0   0.01
O      2 -0.2945440000000  0.1202550000000  0.7326160000000 1.0   0.06
O      2 -0.2402330000000 -0.5415490000000 -0.0034530000000 1.0   0.06
O      2 -0.3186480000000 -0.2629040000000  0.1402800000000 1.0   0.01
O      2 -0.5473450000000 -0.4124040000000 -0.1394060000000 1.0   0.01
O      2 -0.2520100000000 -0.2480570000000 -0.0963180000000 1.0   0.06
O      2  0.2367790000000 -0.0415490000000 -0.0034530000000 1.0   0.06
O      2  0.4589280000000  0.2370960000000  0.1402800000000 1.0   0.01
O      2  0.4079390000000  0.0875960000000 -0.1394060000000 1.0   0.01
O      2  0.1556920000000  0.2519430000000 -0.0963180000000 1.0   0.06
F      3  0.3086390000000 -0.5211610000000 -0.6223510000000 1.0   0.09
F      3  0.0690100000000 -0.0211610000000 -0.6223510000000 1.0   0.09
F      3  0.1388970000000 -0.3047640000000  0.1441730000000 1.0   0.15
F      3  0.0052760000000  0.1952360000000  0.1441730000000 1.0   0.15
S      4 -0.0274740000000 -0.4583600000000  0.5556680000000 1.0   0.02
S      4 -0.4168590000000  0.0416400000000  0.5556680000000 1.0   0.02
S      4 -0.3409480000000 -0.3684000000000 -0.0196920000000 1.0   0.01
S      4  0.3212560000000  0.1316000000000 -0.0196920000000 1.0   0.01
Fe     5 -0.0878800000000  0.2752090000000 -0.0661620000000 1.0   3.65
Fe     5  0.0217180000000 -0.2247910000000 -0.0661620000000 1.0   3.65
Fe     5  0.2090850000000 -0.2692700000000  0.3726890000000 1.0   3.79
Fe     5  0.1636040000000  0.2307300000000  0.3726890000000 1.0   3.79
END
