TITL 4LiFeSO4F-200818-104844-3da51d 0.0217 529.795751 -1.51308118E+004 16.0000 16.2873 32 (C2) n - 1
REM
REM Run started: Wed, 19 Aug 2020 02:37:20 +0100 in /lustre/scratch/uccabz1/launch_tmp/launcher_2020-08-18-09-48-30-353265
REM CASTEP 20.1 from code version af48c487+ pr-geom-scf-spinfix Tue Jun 2 15:39:59 2020 +0100
REM Functional Perdew Burke Ernzerhof Relativity Koelling-Harmon Dispersion off
REM Cut-off 340.0000 eV Grid scale 1.7500 Gmax 16.5316 1/A FBSC none
REM MP grid 3 3 1 Offset 0.000 0.000 0.000 No. kpts 4 Spacing 0.07
REM Total runtime: 63289.3 s
REM Overall efficiency: 73.3333 %
REM
REM 4LiFeSO4F.cell (79c870615ff1d88195b1fe3fe805288c)
REM
REM compiler GCC version 4.9.2
REM options -cpp -iprefix /lustre/shared/ucl/apps/gcc/4.9.2/bin/../lib/gcc/x86_64-unknown-linux-gnu/4.9.2/ -mtune=corei7 -march=x86-64 -g -Og
REM COMMAND_LINE
REM seed 2119203214 -594176931 -1372687533 931005053 -504941657 820060620 473118916 1578618124 31252616 857091448 1471268408 46098858
REM
REM S 3|1.8|5|6|7|30:31:32(qc=5)
REM O 2|1.5|12|13|15|20:21(qc=5)
REM Li 1|1.3|8|9|10|10U:20(qc=5)
REM Fe 3|2.2|2.0|1.0|8|9|10|40:41:32(qc=5)
REM F 2|1.6|10|12|13|20:21(qc=5)
REM 
CELL 1.54180    5.65016    6.88138   14.96185   87.41232   90.00000  114.23872
LATT -1
SFAC Li O  F  S  Fe 
Li     1  0.3553650000000 -0.2234850000000  0.5254710000000 1.0  -0.00
Li     1 -0.4211500000000  0.2234850000000 -0.5254710000000 1.0  -0.00
Li     1  0.1614670000000 -0.4043690000000 -0.0614270000000 1.0  -0.01
Li     1 -0.4341650000000  0.4043690000000  0.0614270000000 1.0  -0.01
O      2  0.1594500000000 -0.1866020000000  0.2813560000000 1.0   0.07
O      2  0.4102900000000 -0.0527780000000  0.4165430000000 1.0   0.02
O      2  0.5037960000000  0.1759360000000  0.2784990000000 1.0   0.05
O      2  0.6175720000000 -0.1365800000000  0.2910520000000 1.0   0.06
O      2  0.3460520000000  0.1866020000000 -0.2813560000000 1.0   0.07
O      2  0.4630680000000  0.0527780000000 -0.4165430000000 1.0   0.02
O      2  0.3278600000000 -0.1759360000000 -0.2784990000000 1.0   0.05
O      2  0.7541520000000  0.1365800000000 -0.2910520000000 1.0   0.06
O      2  0.0793680000000  0.4117610000000  0.2001400000000 1.0   0.08
O      2  0.2247750000000  0.4364970000000  0.0434790000000 1.0   0.02
O      2 -0.2415920000000  0.2245280000000  0.0856340000000 1.0   0.01
O      2  0.0996890000000  0.1037500000000  0.1282030000000 1.0   0.09
O      2 -0.3323930000000 -0.4117610000000 -0.2001400000000 1.0   0.08
O      2 -0.2117220000000 -0.4364970000000 -0.0434790000000 1.0   0.02
O      2 -0.4661190000000 -0.2245280000000 -0.0856340000000 1.0   0.01
O      2 -0.0040610000000 -0.1037500000000 -0.1282030000000 1.0   0.09
F      3  0.1217450000000  0.4339070000000 -0.1711000000000 1.0   0.12
F      3 -0.3121620000000 -0.4339070000000  0.1711000000000 1.0   0.12
F      3 -0.1879510000000 -0.5546010000000  0.4095880000000 1.0   0.10
F      3  0.3666500000000  0.5546010000000 -0.4095880000000 1.0   0.10
S      4  0.4257130000000 -0.0470510000000  0.3158510000000 1.0   0.02
S      4  0.4727640000000  0.0470510000000 -0.3158510000000 1.0   0.02
S      4  0.0314730000000  0.2966170000000  0.1129800000000 1.0   0.01
S      4 -0.2651440000000 -0.2966170000000 -0.1129800000000 1.0   0.01
Fe     5 -0.1195900000000 -0.1374730000000  0.2031430000000 1.0   3.65
Fe     5  0.0178830000000  0.1374730000000 -0.2031430000000 1.0   3.65
Fe     5 -0.1651210000000 -0.5338980000000  0.2822800000000 1.0   3.73
Fe     5  0.3687770000000  0.5338980000000 -0.2822800000000 1.0   3.73
END
