TITL 4LiFeSO4F-200818-081155-d2abaa 0.0189 446.379325 -1.51280314E+004 17.7628 18.2996 32 (Cm) n - 1
REM
REM Run started: Wed, 19 Aug 2020 05:09:47 +0100 in /lustre/scratch/uccabz1/launch_tmp/launcher_2020-08-18-07-11-41-020928
REM CASTEP 20.1 from code version af48c487+ pr-geom-scf-spinfix Tue Jun 2 15:39:59 2020 +0100
REM Functional Perdew Burke Ernzerhof Relativity Koelling-Harmon Dispersion off
REM Cut-off 340.0000 eV Grid scale 1.7500 Gmax 16.5316 1/A FBSC none
REM MP grid 3 3 3 Offset 0.000 0.000 0.000 No. kpts 10 Spacing 0.07
REM Total runtime: 76522.5 s
REM Overall efficiency: 95.5 %
REM
REM 4LiFeSO4F.cell (79c870615ff1d88195b1fe3fe805288c)
REM
REM compiler GCC version 4.9.2
REM options -cpp -iprefix /lustre/shared/ucl/apps/gcc/4.9.2/bin/../lib/gcc/x86_64-unknown-linux-gnu/4.9.2/ -mtune=corei7 -march=x86-64 -g -Og
REM COMMAND_LINE
REM seed -1017631012 -1995024653 -1040613385 -1018155747 1402994072 -83491358 -1065439763 -467342122 -1302414901 1695737403 -1694229297 -1556838596
REM
REM S 3|1.8|5|6|7|30:31:32(qc=5)
REM O 2|1.5|12|13|15|20:21(qc=5)
REM Li 1|1.3|8|9|10|10U:20(qc=5)
REM Fe 3|2.2|2.0|1.0|8|9|10|40:41:32(qc=5)
REM F 2|1.6|10|12|13|20:21(qc=5)
REM 
CELL 1.54180    8.25304    8.25304    9.70796   55.27129   55.27129   69.67821
LATT -1
SFAC Li O  F  S  Fe 
Li     1 -0.3556470000000 -0.3556470000000  0.1800060000000 1.0  -0.01
Li     1 -0.4931020000000 -0.4931020000000 -0.1474990000000 1.0  -0.00
Li     1  0.3769580000000  0.3769580000000  0.2449700000000 1.0   0.00
Li     1 -0.2683400000000 -0.2683400000000  0.4139560000000 1.0  -0.01
O      2  0.3368790000000 -0.3675770000000  0.2470590000000 1.0   0.01
O      2 -0.0270520000000 -0.3811340000000  0.4417350000000 1.0   0.03
O      2  0.1388940000000 -0.1472440000000  0.3939330000000 1.0   0.14
O      2  0.1761640000000 -0.4991760000000  0.5973340000000 1.0   0.07
O      2 -0.3675770000000  0.3368790000000  0.2470590000000 1.0   0.01
O      2 -0.3811340000000 -0.0270520000000  0.4417350000000 1.0   0.03
O      2 -0.1472440000000  0.1388940000000  0.3939330000000 1.0   0.14
O      2 -0.4991760000000  0.1761640000000  0.5973340000000 1.0   0.07
O      2  0.1622650000000 -0.1494030000000 -0.1108980000000 1.0   0.12
O      2  0.2886900000000 -0.4057310000000 -0.2105880000000 1.0   0.06
O      2 -0.0563750000000 -0.4258830000000  0.0631140000000 1.0  -0.02
O      2 -0.1494030000000  0.1622650000000 -0.1108980000000 1.0   0.12
O      2 -0.4057310000000  0.2886900000000 -0.2105880000000 1.0   0.06
O      2 -0.4258830000000 -0.0563750000000  0.0631140000000 1.0  -0.02
O      2  0.3039480000000  0.3039480000000  0.1295380000000 1.0   0.29
O      2 -0.0875330000000 -0.0875330000000 -0.2590020000000 1.0   0.68
F      3 -0.4167620000000 -0.4167620000000  0.4386270000000 1.0   0.10
F      3  0.2161590000000  0.2161590000000  0.4886550000000 1.0   0.18
F      3  0.1925400000000  0.1925400000000 -0.0434980000000 1.0   0.20
F      3 -0.3327740000000 -0.3327740000000 -0.2157860000000 1.0   0.13
S      4  0.1600710000000 -0.3589400000000  0.4178510000000 1.0   0.01
S      4 -0.3589400000000  0.1600710000000  0.4178510000000 1.0   0.01
S      4  0.1510580000000 -0.3755030000000 -0.0291600000000 1.0  -0.07
S      4 -0.3755030000000  0.1510580000000 -0.0291600000000 1.0  -0.07
Fe     5  0.1445420000000  0.1445420000000  0.1968500000000 1.0   3.84
Fe     5 -0.1412020000000 -0.1412020000000 -0.3836730000000 1.0   3.88
Fe     5  0.3878640000000  0.3878640000000 -0.3079540000000 1.0   3.99
Fe     5  0.0483620000000  0.0483620000000 -0.2652530000000 1.0   3.80
END
