TITL 4LiFeSO4F-200818-163805-1c4774 -0.0255 503.335358 -1.51297120E+004 -16.0000 16.4401 32 (P-1) n - 1
REM
REM Run started: Wed, 19 Aug 2020 12:22:38 +0100 in /lustre/scratch/uccabz1/launch_tmp/launcher_2020-08-18-15-38-03-037650
REM CASTEP 20.1 from code version af48c487+ pr-geom-scf-spinfix Tue Jun 2 15:39:59 2020 +0100
REM Functional Perdew Burke Ernzerhof Relativity Koelling-Harmon Dispersion off
REM Cut-off 340.0000 eV Grid scale 1.7500 Gmax 16.5316 1/A FBSC none
REM MP grid 4 2 2 Offset 0.000 0.000 0.000 No. kpts 8 Spacing 0.07
REM Total runtime: 79463.1 s
REM Overall efficiency: 97.8333 %
REM
REM 4LiFeSO4F.cell (79c870615ff1d88195b1fe3fe805288c)
REM
REM compiler GCC version 4.9.2
REM options -cpp -iprefix /lustre/shared/ucl/apps/gcc/4.9.2/bin/../lib/gcc/x86_64-unknown-linux-gnu/4.9.2/ -mtune=corei7 -march=x86-64 -g -Og
REM COMMAND_LINE
REM seed 1853336190 -157474759 -891698933 -1338660928 -717015838 2145728229 -1999774788 -1742451312 -1990619519 -1505743600 599530902 1505079852
REM
REM S 3|1.8|5|6|7|30:31:32(qc=5)
REM O 2|1.5|12|13|15|20:21(qc=5)
REM Li 1|1.3|8|9|10|10U:20(qc=5)
REM Fe 3|2.2|2.0|1.0|8|9|10|40:41:32(qc=5)
REM F 2|1.6|10|12|13|20:21(qc=5)
REM 
CELL 1.54180    4.51119    9.26998   15.57609  128.50966   95.88981   80.94240
LATT -1
SFAC Li O  F  S  Fe 
Li     1 -0.2989510000000 -0.3039670000000  0.2890530000000 1.0   0.01
Li     1  0.2989510000000  0.3039670000000 -0.2890530000000 1.0   0.01
Li     1 -0.2914170000000 -0.3098900000000 -0.0858440000000 1.0   0.02
Li     1  0.2914170000000  0.3098900000000  0.0858440000000 1.0   0.02
O      2  0.6123970000000  0.1847600000000  0.3664190000000 1.0  -0.07
O      2  0.1741700000000  0.0564140000000  0.2449110000000 1.0  -0.11
O      2  0.2658910000000  0.0512810000000  0.4054490000000 1.0  -0.02
O      2  0.5672280000000 -0.1572180000000  0.2340120000000 1.0  -0.05
O      2 -0.6123970000000 -0.1847600000000 -0.3664190000000 1.0  -0.07
O      2 -0.1741700000000 -0.0564140000000 -0.2449110000000 1.0  -0.11
O      2 -0.2658910000000 -0.0512810000000 -0.4054490000000 1.0  -0.02
O      2 -0.5672280000000  0.1572180000000 -0.2340120000000 1.0  -0.05
O      2 -0.4995530000000  0.6842400000000 -0.2253020000000 1.0  -0.07
O      2 -0.4527630000000  0.3446780000000 -0.3686330000000 1.0  -0.01
O      2 -0.0667820000000  0.4922870000000 -0.2236350000000 1.0  -0.01
O      2 -0.1073640000000  0.5289530000000 -0.3687010000000 1.0  -0.07
O      2  0.4995530000000 -0.6842400000000  0.2253020000000 1.0  -0.07
O      2  0.4527630000000 -0.3446780000000  0.3686330000000 1.0  -0.01
O      2  0.0667820000000 -0.4922870000000  0.2236350000000 1.0  -0.01
O      2  0.1073640000000 -0.5289530000000  0.3687010000000 1.0  -0.07
F      3 -0.1198270000000 -0.1490340000000  0.0466160000000 1.0  -0.12
F      3  0.1198270000000  0.1490340000000 -0.0466160000000 1.0  -0.12
F      3 -0.4435550000000  0.3850870000000  0.0427540000000 1.0  -0.12
F      3  0.4435550000000 -0.3850870000000 -0.0427540000000 1.0  -0.12
S      4  0.4102440000000  0.0372570000000  0.3209250000000 1.0  -0.01
S      4 -0.4102440000000 -0.0372570000000 -0.3209250000000 1.0  -0.01
S      4 -0.2801830000000  0.5053560000000 -0.3004350000000 1.0  -0.00
S      4  0.2801830000000 -0.5053560000000  0.3004350000000 1.0  -0.00
Fe     5  0.2671810000000 -0.1936730000000  0.0934560000000 1.0  -3.68
Fe     5 -0.2671810000000  0.1936730000000 -0.0934560000000 1.0  -3.68
Fe     5 -0.1603080000000  0.2707900000000  0.3057130000000 1.0  -3.69
Fe     5  0.1603080000000 -0.2707900000000 -0.3057130000000 1.0  -3.69
END
