TITL 4LiFeSO4F-200818-004451-d53878 0.0380 392.329884 -1.51307535E+004 16.0005 16.1959 32 (P43) n - 1
REM
REM Run started: Tue, 18 Aug 2020 02:15:45 +0100 in /lustre/scratch/uccabz1/launch_tmp/launcher_2020-08-17-23-44-38-650082
REM CASTEP 20.1 from code version af48c487+ pr-geom-scf-spinfix Tue Jun 2 15:39:59 2020 +0100
REM Functional Perdew Burke Ernzerhof Relativity Koelling-Harmon Dispersion off
REM Cut-off 340.0000 eV Grid scale 1.7500 Gmax 16.5316 1/A FBSC none
REM MP grid 2 2 2 Offset 0.000 0.000 0.000 No. kpts 1 Spacing 0.07
REM Total runtime: 5476.92 s
REM Overall efficiency: 69.4444 %
REM
REM 4LiFeSO4F.cell (79c870615ff1d88195b1fe3fe805288c)
REM
REM compiler GCC version 4.9.2
REM options -cpp -iprefix /lustre/shared/ucl/apps/gcc/4.9.2/bin/../lib/gcc/x86_64-unknown-linux-gnu/4.9.2/ -mtune=corei7 -march=x86-64 -g -Og
REM COMMAND_LINE
REM seed -441868717 -797191869 -247312180 -1263759955 972048124 -318886603 -1413558689 -644630330 683512129 -2070566811 942496564 -1610345446
REM
REM S 3|1.8|5|6|7|30:31:32(qc=5)
REM O 2|1.5|12|13|15|20:21(qc=5)
REM Li 1|1.3|8|9|10|10U:20(qc=5)
REM Fe 3|2.2|2.0|1.0|8|9|10|40:41:32(qc=5)
REM F 2|1.6|10|12|13|20:21(qc=5)
REM 
CELL 1.54180    7.24545    7.24545    7.47344   90.00000   90.00000   90.00000
LATT -1
SFAC Li O  F  S  Fe 
Li     1 -0.4366690000000 -0.2642070000000 -0.4373890000000 1.0  -0.02
Li     1  0.4366690000000  0.2642070000000  0.0626110000000 1.0  -0.02
Li     1 -0.2642070000000  0.4366690000000 -0.1873890000000 1.0  -0.02
Li     1  0.2642070000000 -0.4366690000000  0.3126110000000 1.0  -0.02
O      2  0.4482650000000 -0.0161230000000 -0.0244080000000 1.0   0.05
O      2  0.1648950000000 -0.1844980000000 -0.1054280000000 1.0   0.07
O      2  0.2026230000000 -0.0612200000000  0.1942260000000 1.0   0.08
O      2  0.3880980000000 -0.3272640000000  0.1021390000000 1.0   0.01
O      2 -0.4482650000000  0.0161230000000 -0.5244080000000 1.0   0.05
O      2 -0.1648950000000  0.1844980000000 -0.6054280000000 1.0   0.07
O      2 -0.2026230000000  0.0612200000000 -0.3057740000000 1.0   0.08
O      2 -0.3880980000000  0.3272640000000 -0.3978610000000 1.0   0.01
O      2 -0.0161230000000 -0.4482650000000  0.2255920000000 1.0   0.05
O      2 -0.1844980000000 -0.1648950000000  0.1445720000000 1.0   0.07
O      2 -0.0612200000000 -0.2026230000000  0.4442260000000 1.0   0.08
O      2 -0.3272640000000 -0.3880980000000  0.3521390000000 1.0   0.01
O      2  0.0161230000000  0.4482650000000 -0.2744080000000 1.0   0.05
O      2  0.1844980000000  0.1648950000000 -0.3554280000000 1.0   0.07
O      2  0.0612200000000  0.2026230000000 -0.0557740000000 1.0   0.08
O      2  0.3272640000000  0.3880980000000 -0.1478610000000 1.0   0.01
F      3  0.2660160000000  0.2991430000000  0.2697110000000 1.0   0.07
F      3 -0.2660160000000 -0.2991430000000 -0.2302890000000 1.0   0.07
F      3  0.2991430000000 -0.2660160000000 -0.4802890000000 1.0   0.07
F      3 -0.2991430000000  0.2660160000000  0.0197110000000 1.0   0.07
S      4  0.3038750000000 -0.1537370000000  0.0403250000000 1.0   0.02
S      4 -0.3038750000000  0.1537370000000 -0.4596750000000 1.0   0.02
S      4 -0.1537370000000 -0.3038750000000  0.2903250000000 1.0   0.02
S      4  0.1537370000000  0.3038750000000 -0.2096750000000 1.0   0.02
Fe     5  0.0188770000000 -0.2671790000000 -0.3105860000000 1.0   3.72
Fe     5 -0.0188770000000  0.2671790000000  0.1894140000000 1.0   3.72
Fe     5 -0.2671790000000 -0.0188770000000 -0.0605860000000 1.0   3.72
Fe     5  0.2671790000000  0.0188770000000  0.4394140000000 1.0   3.72
END
