TITL 4LiFeSO4F-200804-071500-9d22ee 0.2207 498.652056 -1.51301420E+004 16.0000 16.2776 32 (P21) n - 1
REM
REM Run started: Tue, 04 Aug 2020 15:47:50 +0100 in /lustre/scratch/uccabz1/launch_tmp/launcher_2020-08-04-06-14-54-639197
REM CASTEP 20.1 from code version af48c487+ pr-geom-scf-spinfix Tue Jun 2 15:39:59 2020 +0100
REM Functional Perdew Burke Ernzerhof Relativity Koelling-Harmon Dispersion off
REM Cut-off 340.0000 eV Grid scale 1.7500 Gmax 16.5316 1/A FBSC none
REM MP grid 3 2 2 Offset 0.000 0.000 0.000 No. kpts 3 Spacing 0.07
REM Total runtime: 33575.2 s
REM Overall efficiency: 73.8333 %
REM
REM 4LiFeSO4F.cell (79c870615ff1d88195b1fe3fe805288c)
REM
REM compiler GCC version 4.9.2
REM options -cpp -iprefix /lustre/shared/ucl/apps/gcc/4.9.2/bin/../lib/gcc/x86_64-unknown-linux-gnu/4.9.2/ -mtune=corei7 -march=x86-64 -g -Og
REM COMMAND_LINE
REM seed -882931005 -184363374 1861622504 1799226005 905132658 -802466680 -1156132988 1379164074 -350236355 -1944418214 -1991594936 496346318
REM
REM S 3|1.8|5|6|7|30:31:32(qc=5)
REM O 2|1.5|12|13|15|20:21(qc=5)
REM Li 1|1.3|8|9|10|10U:20(qc=5)
REM Fe 3|2.2|2.0|1.0|8|9|10|40:41:32(qc=5)
REM F 2|1.6|10|12|13|20:21(qc=5)
REM 
CELL 1.54180    5.10890    8.01746   12.56069   90.00000   90.00000  104.25408
LATT -1
SFAC Li O  F  S  Fe 
Li     1  0.1680590000000  0.3820500000000 -0.2833900000000 1.0  -0.02
Li     1 -0.1680590000000 -0.3820500000000  0.2166100000000 1.0  -0.02
Li     1 -0.0635020000000  0.4264530000000  0.4786170000000 1.0  -0.03
Li     1  0.0635020000000 -0.4264530000000 -0.0213830000000 1.0  -0.03
O      2 -0.2581110000000  0.0553520000000 -0.2936080000000 1.0   0.05
O      2 -0.3487580000000  0.2984710000000 -0.1969140000000 1.0   0.06
O      2 -0.6502220000000  0.1754420000000 -0.3438800000000 1.0   0.05
O      2 -0.1734760000000  0.3369080000000 -0.3791450000000 1.0   0.01
O      2  0.2581110000000 -0.0553520000000  0.2063920000000 1.0   0.05
O      2  0.3487580000000 -0.2984710000000  0.3030860000000 1.0   0.06
O      2  0.6502220000000 -0.1754420000000  0.1561200000000 1.0   0.05
O      2  0.1734760000000 -0.3369080000000  0.1208550000000 1.0   0.01
O      2 -0.4686130000000  0.4205900000000  0.1952410000000 1.0   0.04
O      2 -0.3194410000000  0.4379040000000  0.0117180000000 1.0   0.05
O      2 -0.7243010000000  0.2168940000000  0.0628940000000 1.0   0.05
O      2 -0.2736650000000  0.1964060000000  0.1219540000000 1.0   0.07
O      2  0.4686130000000 -0.4205900000000 -0.3047590000000 1.0   0.04
O      2  0.3194410000000 -0.4379040000000 -0.4882820000000 1.0   0.05
O      2  0.7243010000000 -0.2168940000000 -0.4371060000000 1.0   0.05
O      2  0.2736650000000 -0.1964060000000 -0.3780460000000 1.0   0.07
F      3  0.2125300000000 -0.5387930000000 -0.1292280000000 1.0   0.09
F      3 -0.2125300000000  0.5387930000000  0.3707720000000 1.0   0.09
F      3  0.0985740000000  0.2919250000000  0.3875780000000 1.0   0.14
F      3 -0.0985740000000 -0.2919250000000 -0.1124220000000 1.0   0.14
S      4 -0.3582790000000  0.2156140000000 -0.3046750000000 1.0   0.02
S      4  0.3582790000000 -0.2156140000000  0.1953250000000 1.0   0.02
S      4 -0.4498270000000  0.3152300000000  0.0973710000000 1.0   0.02
S      4  0.4498270000000 -0.3152300000000 -0.4026290000000 1.0   0.02
Fe     5 -0.4012900000000 -0.4663800000000 -0.1459740000000 1.0   3.81
Fe     5  0.4012900000000  0.4663800000000  0.3540260000000 1.0   3.81
Fe     5 -0.0354410000000  0.0437030000000  0.1362560000000 1.0   3.59
Fe     5  0.0354410000000 -0.0437030000000 -0.3637440000000 1.0   3.59
END
