TITL 4LiFeSO4F-200818-171851-2322ae -0.1170 436.724428 -1.51315469E+004 16.0000 16.2545 32 (P-1) n - 1
REM
REM Run started: Wed, 19 Aug 2020 15:29:36 +0100 in /lustre/scratch/uccabz1/launch_tmp/launcher_2020-08-18-16-18-44-568474
REM CASTEP 20.1 from code version af48c487+ pr-geom-scf-spinfix Tue Jun 2 15:39:59 2020 +0100
REM Functional Perdew Burke Ernzerhof Relativity Koelling-Harmon Dispersion off
REM Cut-off 340.0000 eV Grid scale 1.7500 Gmax 16.5316 1/A FBSC none
REM MP grid 3 3 3 Offset 0.000 0.000 0.000 No. kpts 14 Spacing 0.07
REM Total runtime: 95416.3 s
REM Overall efficiency: 95.0833 %
REM
REM 4LiFeSO4F.cell (79c870615ff1d88195b1fe3fe805288c)
REM
REM compiler GCC version 4.9.2
REM options -cpp -iprefix /lustre/shared/ucl/apps/gcc/4.9.2/bin/../lib/gcc/x86_64-unknown-linux-gnu/4.9.2/ -mtune=corei7 -march=x86-64 -g -Og
REM COMMAND_LINE
REM seed 886738979 18299849 1204579347 -1857036983 868607027 -1557408080 -1833202580 -1152154766 456087702 -541168966 -1219267870 1950816199
REM
REM S 3|1.8|5|6|7|30:31:32(qc=5)
REM O 2|1.5|12|13|15|20:21(qc=5)
REM Li 1|1.3|8|9|10|10U:20(qc=5)
REM Fe 3|2.2|2.0|1.0|8|9|10|40:41:32(qc=5)
REM F 2|1.6|10|12|13|20:21(qc=5)
REM 
CELL 1.54180    7.01921   10.88532    9.42376  124.75986   94.06771  120.70476
LATT -1
SFAC Li O  F  S  Fe 
Li     1  0.3893220000000  0.1484840000000  0.1486900000000 1.0  -0.02
Li     1 -0.3893220000000 -0.1484840000000 -0.1486900000000 1.0  -0.02
Li     1  0.3821890000000  0.0681550000000 -0.4139280000000 1.0  -0.01
Li     1 -0.3821890000000 -0.0681550000000  0.4139280000000 1.0  -0.01
O      2 -0.2701210000000  0.2792350000000  0.3902550000000 1.0   0.06
O      2 -0.0858280000000  0.1635500000000  0.4597440000000 1.0   0.05
O      2  0.0907940000000  0.3173980000000  0.3377610000000 1.0   0.07
O      2 -0.3495390000000 -0.0192170000000  0.1132550000000 1.0   0.02
O      2  0.2701210000000 -0.2792350000000 -0.3902550000000 1.0   0.06
O      2  0.0858280000000 -0.1635500000000 -0.4597440000000 1.0   0.05
O      2 -0.0907940000000 -0.3173980000000 -0.3377610000000 1.0   0.07
O      2  0.3495390000000  0.0192170000000 -0.1132550000000 1.0   0.02
O      2  0.1536870000000  0.3053110000000 -0.1385840000000 1.0   0.07
O      2 -0.0406250000000  0.3783460000000  0.0712930000000 1.0   0.07
O      2 -0.1423890000000  0.0543160000000 -0.1415500000000 1.0   0.01
O      2 -0.3064910000000  0.1264540000000 -0.2980650000000 1.0   0.01
O      2 -0.1536870000000 -0.3053110000000  0.1385840000000 1.0   0.07
O      2  0.0406250000000 -0.3783460000000 -0.0712930000000 1.0   0.07
O      2  0.1423890000000 -0.0543160000000  0.1415500000000 1.0   0.01
O      2  0.3064910000000 -0.1264540000000  0.2980650000000 1.0   0.01
F      3 -0.4542890000000 -0.2909760000000  0.3556150000000 1.0   0.10
F      3  0.4542890000000  0.2909760000000 -0.3556150000000 1.0   0.10
F      3 -0.5088050000000 -0.3855560000000 -0.2317310000000 1.0   0.12
F      3  0.5088050000000  0.3855560000000  0.2317310000000 1.0   0.12
S      4 -0.1554350000000  0.1819440000000  0.3200890000000 1.0   0.01
S      4  0.1554350000000 -0.1819440000000 -0.3200890000000 1.0   0.01
S      4 -0.0911670000000  0.2106990000000 -0.1283540000000 1.0   0.01
S      4  0.0911670000000 -0.2106990000000  0.1283540000000 1.0   0.01
Fe     5  0.2261950000000 -0.4689380000000  0.3406150000000 1.0   3.68
Fe     5 -0.2261950000000  0.4689380000000 -0.3406150000000 1.0   3.68
Fe     5  0.2645120000000 -0.5977260000000 -0.2606620000000 1.0   3.73
Fe     5 -0.2645120000000  0.5977260000000  0.2606620000000 1.0   3.73
END
