TITL 4LiFeSO4F-200804-070200-7dbaca 0.0546 481.696302 -1.51295676E+004 16.0000 16.3552 32 (Pca21) n - 1
REM
REM Run started: Tue, 04 Aug 2020 09:33:26 +0100 in /lustre/scratch/uccabz1/launch_tmp/launcher_2020-08-04-06-01-52-787344
REM CASTEP 20.1 from code version af48c487+ pr-geom-scf-spinfix Tue Jun 2 15:39:59 2020 +0100
REM Functional Perdew Burke Ernzerhof Relativity Koelling-Harmon Dispersion off
REM Cut-off 340.0000 eV Grid scale 1.7500 Gmax 16.5316 1/A FBSC none
REM MP grid 3 2 2 Offset 0.000 0.000 0.000 No. kpts 2 Spacing 0.07
REM Total runtime: 10139 s
REM Overall efficiency: 77.9167 %
REM
REM 4LiFeSO4F.cell (79c870615ff1d88195b1fe3fe805288c)
REM
REM compiler GCC version 4.9.2
REM options -cpp -iprefix /lustre/shared/ucl/apps/gcc/4.9.2/bin/../lib/gcc/x86_64-unknown-linux-gnu/4.9.2/ -mtune=corei7 -march=x86-64 -g -Og
REM COMMAND_LINE
REM seed 649333741 -1425406617 1911190748 -1369107239 -321522919 1995624783 1501976183 556861834 975551574 587308749 2067705326 1880408617
REM
REM S 3|1.8|5|6|7|30:31:32(qc=5)
REM O 2|1.5|12|13|15|20:21(qc=5)
REM Li 1|1.3|8|9|10|10U:20(qc=5)
REM Fe 3|2.2|2.0|1.0|8|9|10|40:41:32(qc=5)
REM F 2|1.6|10|12|13|20:21(qc=5)
REM 
CELL 1.54180    5.10314    8.87931   10.63057   90.00000   90.00000   90.00000
LATT -1
SFAC Li O  F  S  Fe 
Li     1  0.3796050000000  0.0910140000000  0.1754110000000 1.0  -0.02
Li     1 -0.3796050000000 -0.0910140000000 -0.3245890000000 1.0  -0.02
Li     1 -0.1203950000000 -0.0910140000000  0.1754110000000 1.0  -0.02
Li     1  0.1203950000000  0.0910140000000 -0.3245890000000 1.0  -0.02
O      2 -0.4032300000000  0.2315460000000  0.2741590000000 1.0   0.07
O      2 -0.1472650000000  0.3165800000000  0.0934500000000 1.0   0.09
O      2  0.0134330000000  0.1075660000000  0.2253400000000 1.0   0.01
O      2  0.0168700000000  0.3681050000000  0.3087170000000 1.0   0.02
O      2  0.4032300000000 -0.2315460000000 -0.2258410000000 1.0   0.07
O      2  0.1472650000000 -0.3165800000000 -0.4065500000000 1.0   0.09
O      2 -0.0134330000000 -0.1075660000000 -0.2746600000000 1.0   0.01
O      2 -0.0168700000000 -0.3681050000000 -0.1912830000000 1.0   0.02
O      2  0.0967700000000 -0.2315460000000  0.2741590000000 1.0   0.07
O      2  0.3527350000000 -0.3165800000000  0.0934500000000 1.0   0.09
O      2  0.5134330000000 -0.1075660000000  0.2253400000000 1.0   0.01
O      2  0.5168700000000 -0.3681050000000  0.3087170000000 1.0   0.02
O      2 -0.0967700000000  0.2315460000000 -0.2258410000000 1.0   0.07
O      2 -0.3527350000000  0.3165800000000 -0.4065500000000 1.0   0.09
O      2 -0.5134330000000  0.1075660000000 -0.2746600000000 1.0   0.01
O      2 -0.5168700000000  0.3681050000000 -0.1912830000000 1.0   0.02
F      3  0.3244230000000  0.1396300000000  0.0090450000000 1.0   0.14
F      3 -0.3244230000000 -0.1396300000000  0.5090450000000 1.0   0.14
F      3 -0.1755770000000 -0.1396300000000  0.0090450000000 1.0   0.14
F      3  0.1755770000000  0.1396300000000  0.5090450000000 1.0   0.14
S      4 -0.1177200000000  0.2593660000000  0.2280430000000 1.0   0.01
S      4  0.1177200000000 -0.2593660000000 -0.2719570000000 1.0   0.01
S      4  0.3822800000000 -0.2593660000000  0.2280430000000 1.0   0.01
S      4 -0.3822800000000  0.2593660000000 -0.2719570000000 1.0   0.01
Fe     5  0.5405590000000 -0.2473370000000 -0.0564960000000 1.0   3.69
Fe     5 -0.5405590000000  0.2473370000000  0.4435040000000 1.0   3.69
Fe     5  0.0405590000000  0.2473370000000 -0.0564960000000 1.0   3.69
Fe     5 -0.0405590000000 -0.2473370000000  0.4435040000000 1.0   3.69
END
