TITL 4LiFeSO4F-200818-143407-48fb64 0.0495 503.040743 -1.51299927E+004 0.249015E-01 15.8871 32 (P2) n - 1
REM
REM Run started: Wed, 19 Aug 2020 01:59:54 +0100 in /lustre/scratch/uccabz1/launch_tmp/launcher_2020-08-18-13-33-49-460779
REM CASTEP 20.1 from code version af48c487+ pr-geom-scf-spinfix Tue Jun 2 15:39:59 2020 +0100
REM Functional Perdew Burke Ernzerhof Relativity Koelling-Harmon Dispersion off
REM Cut-off 340.0000 eV Grid scale 1.7500 Gmax 16.5316 1/A FBSC none
REM MP grid 4 2 2 Offset 0.000 0.000 0.000 No. kpts 4 Spacing 0.07
REM Total runtime: 45380.2 s
REM Overall efficiency: 73 %
REM
REM 4LiFeSO4F.cell (79c870615ff1d88195b1fe3fe805288c)
REM
REM compiler GCC version 4.9.2
REM options -cpp -iprefix /lustre/shared/ucl/apps/gcc/4.9.2/bin/../lib/gcc/x86_64-unknown-linux-gnu/4.9.2/ -mtune=corei7 -march=x86-64 -g -Og
REM COMMAND_LINE
REM seed -756722679 1045335798 -1115043540 -1078268512 -1724862514 -976414553 2053365615 242193447 844794809 1151365011 1024917303 -152468564
REM
REM S 3|1.8|5|6|7|30:31:32(qc=5)
REM O 2|1.5|12|13|15|20:21(qc=5)
REM Li 1|1.3|8|9|10|10U:20(qc=5)
REM Fe 3|2.2|2.0|1.0|8|9|10|40:41:32(qc=5)
REM F 2|1.6|10|12|13|20:21(qc=5)
REM 
CELL 1.54180    4.74109   10.42853   10.18034   88.01675   90.00000   90.00000
LATT -1
SFAC Li O  F  S  Fe 
Li     1 -0.4329950000000  0.2393800000000  0.4002130000000 1.0  -0.00
Li     1 -0.4329950000000 -0.2393800000000 -0.4002130000000 1.0  -0.00
Li     1  0.0701780000000 -0.3112330000000  0.4183580000000 1.0   0.02
Li     1  0.0701780000000  0.3112330000000 -0.4183580000000 1.0   0.02
O      2 -0.1435250000000  0.3838540000000  0.1626840000000 1.0   0.03
O      2 -0.0355030000000  0.3132790000000  0.3910410000000 1.0  -0.01
O      2 -0.1491510000000  0.5394070000000  0.3396380000000 1.0  -0.05
O      2  0.3002970000000  0.4527060000000  0.2680980000000 1.0  -0.04
O      2 -0.1435250000000 -0.3838540000000 -0.1626840000000 1.0   0.03
O      2 -0.0355030000000 -0.3132790000000 -0.3910410000000 1.0  -0.01
O      2 -0.1491510000000 -0.5394070000000 -0.3396380000000 1.0  -0.05
O      2  0.3002970000000 -0.4527060000000 -0.2680980000000 1.0  -0.04
O      2 -0.2583180000000  0.2731490000000 -0.0968050000000 1.0   0.01
O      2  0.1900340000000  0.2045700000000  0.0049660000000 1.0   0.05
O      2  0.1667870000000  0.2556940000000 -0.2328690000000 1.0  -0.04
O      2 -0.0608790000000  0.0587870000000 -0.1458520000000 1.0  -0.00
O      2 -0.2583180000000 -0.2731490000000  0.0968050000000 1.0   0.01
O      2  0.1900340000000 -0.2045700000000 -0.0049660000000 1.0   0.05
O      2  0.1667870000000 -0.2556940000000  0.2328690000000 1.0  -0.04
O      2 -0.0608790000000 -0.0587870000000  0.1458520000000 1.0  -0.00
F      3 -0.5371590000000 -0.2908170000000  0.4374480000000 1.0  -0.06
F      3 -0.5371590000000  0.2908170000000 -0.4374480000000 1.0  -0.06
F      3 -0.4897520000000 -0.1671120000000 -0.2487740000000 1.0   0.12
F      3 -0.4897520000000  0.1671120000000  0.2487740000000 1.0   0.12
S      4 -0.0064150000000  0.4192940000000  0.2886960000000 1.0  -0.00
S      4 -0.0064150000000 -0.4192940000000 -0.2886960000000 1.0  -0.00
S      4  0.0174730000000  0.1894040000000 -0.1172310000000 1.0   0.00
S      4  0.0174730000000 -0.1894040000000  0.1172310000000 1.0   0.00
Fe     5 -0.4266070000000  0.2472170000000  0.0848760000000 1.0   3.70
Fe     5 -0.4266070000000 -0.2472170000000 -0.0848760000000 1.0   3.70
Fe     5 -0.4801180000000 -0.3691620000000  0.2540030000000 1.0  -3.72
Fe     5 -0.4801180000000  0.3691620000000 -0.2540030000000 1.0  -3.72
END
