TITL 4LiFeSO4F-200817-235258-62af13 -0.0194 442.362465 -1.51308035E+004 16.0054 16.2231 32 (P-1) n - 1
REM
REM Run started: Tue, 18 Aug 2020 08:58:59 +0100 in /lustre/scratch/uccabz1/launch_tmp/launcher_2020-08-17-22-52-51-585388
REM CASTEP 20.1 from code version af48c487+ pr-geom-scf-spinfix Tue Jun 2 15:39:59 2020 +0100
REM Functional Perdew Burke Ernzerhof Relativity Koelling-Harmon Dispersion off
REM Cut-off 340.0000 eV Grid scale 1.7500 Gmax 16.5316 1/A FBSC none
REM MP grid 3 2 2 Offset 0.000 0.000 0.000 No. kpts 6 Spacing 0.07
REM Total runtime: 32905 s
REM Overall efficiency: 73.4545 %
REM
REM 4LiFeSO4F.cell (79c870615ff1d88195b1fe3fe805288c)
REM
REM compiler GCC version 4.9.2
REM options -cpp -iprefix /lustre/shared/ucl/apps/gcc/4.9.2/bin/../lib/gcc/x86_64-unknown-linux-gnu/4.9.2/ -mtune=corei7 -march=x86-64 -g -Og
REM COMMAND_LINE
REM seed -1872017587 1975551427 -1041856944 242143230 -267047859 2073826568 1553725796 -410016993 447391870 994599530 2144175474 -993992619
REM
REM S 3|1.8|5|6|7|30:31:32(qc=5)
REM O 2|1.5|12|13|15|20:21(qc=5)
REM Li 1|1.3|8|9|10|10U:20(qc=5)
REM Fe 3|2.2|2.0|1.0|8|9|10|40:41:32(qc=5)
REM F 2|1.6|10|12|13|20:21(qc=5)
REM 
CELL 1.54180    4.98509    8.00766   11.93042   73.16260   77.40913   92.05755
LATT -1
SFAC Li O  F  S  Fe 
Li     1  0.5736160000000 -0.3417660000000 -0.4020690000000 1.0  -0.01
Li     1 -0.5736160000000  0.3417660000000  0.4020690000000 1.0  -0.01
Li     1 -0.0165060000000 -0.2698370000000  0.1199380000000 1.0  -0.03
Li     1  0.0165060000000  0.2698370000000 -0.1199380000000 1.0  -0.03
O      2  0.0269240000000  0.4790510000000  0.1573530000000 1.0   0.01
O      2  0.0789080000000  0.1655960000000  0.1800490000000 1.0   0.08
O      2 -0.2891180000000  0.3107720000000  0.0890670000000 1.0   0.06
O      2 -0.3096890000000  0.2383790000000  0.3079350000000 1.0   0.03
O      2 -0.0269240000000 -0.4790510000000 -0.1573530000000 1.0   0.01
O      2 -0.0789080000000 -0.1655960000000 -0.1800490000000 1.0   0.08
O      2  0.2891180000000 -0.3107720000000 -0.0890670000000 1.0   0.06
O      2  0.3096890000000 -0.2383790000000 -0.3079350000000 1.0   0.03
O      2 -0.4397960000000 -0.2859010000000  0.1416060000000 1.0   0.04
O      2 -0.8896470000000 -0.2360720000000  0.2626100000000 1.0   0.05
O      2 -0.4607920000000 -0.0905770000000  0.2696270000000 1.0   0.06
O      2 -0.5620220000000 -0.4113100000000  0.3628290000000 1.0   0.01
O      2  0.4397960000000  0.2859010000000 -0.1416060000000 1.0   0.04
O      2  0.8896470000000  0.2360720000000 -0.2626100000000 1.0   0.05
O      2  0.4607920000000  0.0905770000000 -0.2696270000000 1.0   0.06
O      2  0.5620220000000  0.4113100000000 -0.3628290000000 1.0   0.01
F      3 -0.2329090000000  0.0495870000000 -0.0299620000000 1.0   0.12
F      3  0.2329090000000 -0.0495870000000  0.0299620000000 1.0   0.12
F      3 -0.8150660000000  0.1619760000000  0.5059280000000 1.0   0.13
F      3  0.8150660000000 -0.1619760000000 -0.5059280000000 1.0   0.13
S      4 -0.1282200000000  0.3080440000000  0.1831050000000 1.0   0.01
S      4  0.1282200000000 -0.3080440000000 -0.1831050000000 1.0   0.01
S      4 -0.5878110000000 -0.2603000000000  0.2605490000000 1.0   0.01
S      4  0.5878110000000  0.2603000000000 -0.2605490000000 1.0   0.01
Fe     5 -0.4377440000000 -0.1569320000000 -0.0522640000000 1.0   3.70
Fe     5  0.4377440000000  0.1569320000000  0.0522640000000 1.0   3.70
Fe     5  0.1144740000000  0.0473430000000 -0.3291400000000 1.0   3.73
Fe     5 -0.1144740000000 -0.0473430000000  0.3291400000000 1.0   3.73
END
