TITL 4LiFeSO4F-200818-095308-c5e8a7 0.0589 541.208882 -1.51288401E+004 16.0000 16.3600 32 (Pcc2) n - 1
REM
REM Run started: Tue, 18 Aug 2020 13:31:40 +0100 in /lustre/scratch/uccabz1/launch_tmp/launcher_2020-08-18-08-53-05-120247
REM CASTEP 20.1 from code version af48c487+ pr-geom-scf-spinfix Tue Jun 2 15:39:59 2020 +0100
REM Functional Perdew Burke Ernzerhof Relativity Koelling-Harmon Dispersion off
REM Cut-off 340.0000 eV Grid scale 1.7500 Gmax 16.5316 1/A FBSC none
REM MP grid 3 2 2 Offset 0.000 0.000 0.000 No. kpts 2 Spacing 0.07
REM Total runtime: 13444.2 s
REM Overall efficiency: 77.3333 %
REM
REM 4LiFeSO4F.cell (79c870615ff1d88195b1fe3fe805288c)
REM
REM compiler GCC version 4.9.2
REM options -cpp -iprefix /lustre/shared/ucl/apps/gcc/4.9.2/bin/../lib/gcc/x86_64-unknown-linux-gnu/4.9.2/ -mtune=corei7 -march=x86-64 -g -Og
REM COMMAND_LINE
REM seed 1109628482 -1664189555 -429318057 1232560548 1514441208 1688201655 1059315170 -928789466 178432731 -1959536427 864765395 1699655290
REM
REM S 3|1.8|5|6|7|30:31:32(qc=5)
REM O 2|1.5|12|13|15|20:21(qc=5)
REM Li 1|1.3|8|9|10|10U:20(qc=5)
REM Fe 3|2.2|2.0|1.0|8|9|10|40:41:32(qc=5)
REM F 2|1.6|10|12|13|20:21(qc=5)
REM 
CELL 1.54180    5.48388    8.28581   11.91082   90.00000   90.00000   90.00000
LATT -1
SFAC Li O  F  S  Fe 
Li     1 -0.2470890000000 -0.2678920000000  0.0535500000000 1.0  -0.00
Li     1 -0.2470890000000  0.2678920000000 -0.0535500000000 1.0  -0.00
Li     1  0.2529110000000 -0.2678920000000 -0.0535500000000 1.0  -0.00
Li     1  0.2529110000000  0.2678920000000  0.0535500000000 1.0  -0.00
O      2  0.0621930000000 -0.1916710000000  0.1172240000000 1.0   0.01
O      2  0.4285660000000 -0.3487280000000  0.0891860000000 1.0   0.01
O      2  0.1926280000000 -0.3834400000000  0.2687150000000 1.0   0.08
O      2  0.4270610000000 -0.1444560000000  0.2409730000000 1.0   0.08
O      2  0.0621930000000  0.1916710000000 -0.1172240000000 1.0   0.01
O      2  0.4285660000000  0.3487280000000 -0.0891860000000 1.0   0.01
O      2  0.1926280000000  0.3834400000000 -0.2687150000000 1.0   0.08
O      2  0.4270610000000  0.1444560000000 -0.2409730000000 1.0   0.08
O      2 -0.4378070000000 -0.1916710000000 -0.1172240000000 1.0   0.01
O      2 -0.0714340000000 -0.3487280000000 -0.0891860000000 1.0   0.01
O      2 -0.3073720000000 -0.3834400000000 -0.2687150000000 1.0   0.08
O      2 -0.0729390000000 -0.1444560000000 -0.2409730000000 1.0   0.08
O      2 -0.4378070000000  0.1916710000000  0.1172240000000 1.0   0.01
O      2 -0.0714340000000  0.3487280000000  0.0891860000000 1.0   0.01
O      2 -0.3073720000000  0.3834400000000  0.2687150000000 1.0   0.08
O      2 -0.0729390000000  0.1444560000000  0.2409730000000 1.0   0.08
F      3 -0.3011040000000  0.2678310000000 -0.4758900000000 1.0   0.14
F      3 -0.3011040000000 -0.2678310000000  0.4758900000000 1.0   0.14
F      3  0.1988960000000  0.2678310000000  0.4758900000000 1.0   0.14
F      3  0.1988960000000 -0.2678310000000 -0.4758900000000 1.0   0.14
S      4  0.2722680000000 -0.2673030000000  0.1766990000000 1.0   0.00
S      4  0.2722680000000  0.2673030000000 -0.1766990000000 1.0   0.00
S      4 -0.2277320000000 -0.2673030000000 -0.1766990000000 1.0   0.00
S      4 -0.2277320000000  0.2673030000000  0.1766990000000 1.0   0.00
Fe     5 -0.0985670000000  0.2661110000000  0.3896460000000 1.0   3.69
Fe     5 -0.0985670000000 -0.2661110000000 -0.3896460000000 1.0   3.69
Fe     5  0.4014330000000  0.2661110000000 -0.3896460000000 1.0   3.69
Fe     5  0.4014330000000 -0.2661110000000  0.3896460000000 1.0   3.69
END
