TITL 4LiFeSO4F-200818-134318-1e1a1c -0.2949 494.093875 -1.51310824E+004 16.0000 16.3170 32 (Cc) n - 1
REM
REM Run started: Wed, 19 Aug 2020 03:24:20 +0100 in /scratch/scratch/uccabz1/launch_tmp/launcher_2020-08-18-19-52-45-159902
REM CASTEP 19.11| from code version Version unavailable
REM Functional Perdew Burke Ernzerhof Relativity Koelling-Harmon Dispersion off
REM Cut-off 340.0000 eV Grid scale 1.7500 Gmax 16.5316 1/A FBSC none
REM MP grid 3 2 2 Offset 0.000 0.000 0.000 No. kpts 5 Spacing 0.07
REM Total runtime: 28969.9 s
REM Overall efficiency: 78 %
REM
REM
REM
REM compiler GCC version 4.9.2
REM options -cpp -iprefix /scratch/UCL/applications/gcc/4.9.2/bin/../lib/gcc/x86_64-unknown-linux-gnu/4.9.2/ -mtune=corei7 -march=x86-64 -g -O2
REM COMMAND_LINE
REM seed -1574097378 -608982242 -1439263818 -947119183 1471759647 -1115880843 -228398986 -984556072 -1462619390 2042699086 -353017012 485854963
REM
REM S 3|1.8|5|6|7|30:31:32(qc=5)
REM O 2|1.5|12|13|15|20:21(qc=5)
REM Li 1|1.3|8|9|10|10U:20(qc=5)
REM Fe 3|2.2|2.0|1.0|8|9|10|40:41:32(qc=5)
REM F 2|1.6|10|12|13|20:21(qc=5)
REM 
CELL 1.54180    6.38663    9.61687    9.61687  122.11335   85.64539   85.64539
LATT -1
SFAC Li O  F  S  Fe 
Li     1 -0.2052740000000  0.1114640000000 -0.0822380000000 1.0  -0.01
Li     1  0.2947260000000 -0.0822380000000  0.1114640000000 1.0  -0.01
Li     1  0.1495440000000 -0.0148790000000 -0.3633470000000 1.0  -0.00
Li     1 -0.3504560000000 -0.3633470000000 -0.0148790000000 1.0  -0.00
O      2  0.0001190000000 -0.1156620000000  0.1217280000000 1.0   0.01
O      2 -0.2073850000000  0.1121480000000  0.1178180000000 1.0   0.01
O      2 -0.2761790000000  0.0829020000000  0.3527790000000 1.0   0.14
O      2 -0.3743110000000 -0.1268210000000  0.0839810000000 1.0   0.01
O      2  0.5001190000000  0.1217280000000 -0.1156620000000 1.0   0.01
O      2  0.2926150000000  0.1178180000000  0.1121480000000 1.0   0.01
O      2  0.2238210000000  0.3527790000000  0.0829020000000 1.0   0.14
O      2  0.1256890000000  0.0839810000000 -0.1268210000000 1.0   0.01
O      2  0.4065700000000  0.3577680000000 -0.4418220000000 1.0   0.07
O      2  0.0608260000000  0.2628730000000 -0.4835540000000 1.0   0.07
O      2  0.1700470000000  0.3946690000000 -0.2042960000000 1.0   0.06
O      2  0.3381740000000  0.1163270000000 -0.4249640000000 1.0   0.08
O      2 -0.0934300000000 -0.4418220000000  0.3577680000000 1.0   0.07
O      2 -0.4391740000000 -0.4835540000000  0.2628730000000 1.0   0.07
O      2 -0.3299530000000 -0.2042960000000  0.3946690000000 1.0   0.06
O      2 -0.1618260000000 -0.4249640000000  0.1163270000000 1.0   0.08
F      3  0.3527860000000 -0.3205350000000  0.0629490000000 1.0   0.10
F      3 -0.1472140000000  0.0629490000000 -0.3205350000000 1.0   0.10
F      3  0.2223840000000 -0.2328290000000 -0.5162870000000 1.0   0.13
F      3 -0.2776160000000 -0.5162870000000 -0.2328290000000 1.0   0.13
S      4 -0.2090980000000 -0.0159000000000  0.1576170000000 1.0   0.01
S      4  0.2909020000000  0.1576170000000 -0.0159000000000 1.0   0.01
S      4  0.2417630000000  0.2882380000000 -0.3859470000000 1.0   0.02
S      4 -0.2582370000000 -0.3859470000000  0.2882380000000 1.0   0.02
Fe     5 -0.2673890000000  0.3025210000000 -0.4488740000000 1.0   3.64
Fe     5  0.2326110000000 -0.4488740000000  0.3025210000000 1.0   3.64
Fe     5 -0.3478040000000  0.0466400000000 -0.4618350000000 1.0   3.68
Fe     5  0.1521960000000 -0.4618350000000  0.0466400000000 1.0   3.68
END
