TITL 4LiFeSO4F-200804-070849-0814c8 0.0309 445.938367 -1.51293147E+004 17.9806 18.1552 32 (C2) n - 1
REM
REM Run started: Tue, 04 Aug 2020 18:13:42 +0100 in /lustre/scratch/uccabz1/launch_tmp/launcher_2020-08-04-06-08-46-876045
REM CASTEP 20.1 from code version af48c487+ pr-geom-scf-spinfix Tue Jun 2 15:39:59 2020 +0100
REM Functional Perdew Burke Ernzerhof Relativity Koelling-Harmon Dispersion off
REM Cut-off 340.0000 eV Grid scale 1.7500 Gmax 16.5316 1/A FBSC none
REM MP grid 3 3 2 Offset 0.000 0.000 0.000 No. kpts 8 Spacing 0.07
REM Total runtime: 43971.1 s
REM Overall efficiency: 94.8889 %
REM
REM 4LiFeSO4F.cell (79c870615ff1d88195b1fe3fe805288c)
REM
REM compiler GCC version 4.9.2
REM options -cpp -iprefix /lustre/shared/ucl/apps/gcc/4.9.2/bin/../lib/gcc/x86_64-unknown-linux-gnu/4.9.2/ -mtune=corei7 -march=x86-64 -g -Og
REM COMMAND_LINE
REM seed -56071673 1838057200 996683278 1671073779 1976076853 -830025781 1077262471 812693947 611762656 440870303 -72992820 -1359592524
REM
REM S 3|1.8|5|6|7|30:31:32(qc=5)
REM O 2|1.5|12|13|15|20:21(qc=5)
REM Li 1|1.3|8|9|10|10U:20(qc=5)
REM Fe 3|2.2|2.0|1.0|8|9|10|40:41:32(qc=5)
REM F 2|1.6|10|12|13|20:21(qc=5)
REM 
CELL 1.54180    7.25157    8.08705    9.46105  116.91792  114.29769   86.21069
LATT -1
SFAC Li O  F  S  Fe 
Li     1 -0.2984840000000 -0.3519910000000 -0.2856820000000 1.0  -0.01
Li     1  0.0128020000000  0.0663090000000 -0.2856820000000 1.0  -0.01
Li     1  0.1792110000000 -0.3207890000000 -0.6415780000000 1.0  -0.01
Li     1 -0.3253470000000 -0.3253470000000 -0.6506940000000 1.0  -0.00
O      2 -0.3900450000000 -0.1176400000000 -0.2753900000000 1.0   0.01
O      2 -0.6424790000000 -0.1017860000000 -0.5401790000000 1.0   0.01
O      2 -0.2777360000000 -0.0586540000000 -0.4654680000000 1.0   0.01
O      2 -0.4215460000000  0.1817870000000 -0.2825090000000 1.0   0.17
O      2  0.1146550000000 -0.1577500000000 -0.2753900000000 1.0   0.01
O      2  0.1022990000000 -0.4383930000000 -0.5401790000000 1.0   0.01
O      2 -0.1877320000000 -0.4068150000000 -0.4654680000000 1.0   0.01
O      2  0.1390370000000 -0.4642960000000 -0.2825090000000 1.0   0.17
O      2 -0.0043540000000  0.2777000000000 -0.0490850000000 1.0   0.09
O      2  0.2901520000000  0.5254070000000  0.1707770000000 1.0   0.09
O      2  0.3326660000000  0.1854180000000  0.0343360000000 1.0   0.09
O      2 -0.0447320000000 -0.3267860000000 -0.0490850000000 1.0   0.09
O      2 -0.1193750000000 -0.3546290000000  0.1707770000000 1.0   0.09
O      2 -0.2983300000000 -0.1510820000000  0.0343360000000 1.0   0.09
O      2  0.4781940000000  0.4781940000000  0.9563890000000 1.0   0.64
O      2  0.6603470000000  0.1603470000000  0.3206940000000 1.0   0.68
F      3  0.4922490000000  0.4678270000000  0.6354620000000 1.0   0.17
F      3  0.1432130000000  0.1676350000000  0.6354620000000 1.0   0.17
F      3  0.7300490000000  0.2328730000000  0.0943940000000 1.0   0.22
F      3 -0.6356550000000 -0.1384790000000  0.0943940000000 1.0   0.22
S      4 -0.4344090000000 -0.0346950000000 -0.3946780000000 1.0   0.00
S      4  0.0397310000000 -0.3599830000000 -0.3946780000000 1.0   0.00
S      4  0.2015740000000  0.3210580000000  0.1178860000000 1.0   0.03
S      4 -0.0836870000000 -0.2031710000000  0.1178860000000 1.0   0.03
Fe     5  0.7279080000000  0.3700530000000 -0.0241770000000 1.0   3.98
Fe     5 -0.7520850000000 -0.3942300000000 -0.0241770000000 1.0   3.98
Fe     5  0.5543620000000  0.0543620000000  0.1087230000000 1.0   2.99
Fe     5  0.3484770000000  0.3484770000000  0.6969540000000 1.0   3.96
END
