TITL 4LiFeSO4F-200804-083833-773d61 0.0717 430.921698 -1.51307675E+004 -16.0000 16.2796 32 (Pc) n - 1
REM
REM Run started: Tue, 04 Aug 2020 19:07:30 +0100 in /lustre/scratch/uccabz1/launch_tmp/launcher_2020-08-04-07-38-28-405443
REM CASTEP 20.1 from code version af48c487+ pr-geom-scf-spinfix Tue Jun 2 15:39:59 2020 +0100
REM Functional Perdew Burke Ernzerhof Relativity Koelling-Harmon Dispersion off
REM Cut-off 340.0000 eV Grid scale 1.7500 Gmax 16.5316 1/A FBSC none
REM MP grid 2 3 2 Offset 0.000 0.000 0.000 No. kpts 4 Spacing 0.07
REM Total runtime: 41787.7 s
REM Overall efficiency: 75.5833 %
REM
REM 4LiFeSO4F.cell (79c870615ff1d88195b1fe3fe805288c)
REM
REM compiler GCC version 4.9.2
REM options -cpp -iprefix /lustre/shared/ucl/apps/gcc/4.9.2/bin/../lib/gcc/x86_64-unknown-linux-gnu/4.9.2/ -mtune=corei7 -march=x86-64 -g -Og
REM COMMAND_LINE
REM seed -1162366324 373441532 -1686018423 970733898 -1029751818 2057028216 -1667599808 1615210149 1623983664 567564819 493815617 422578350
REM
REM S 3|1.8|5|6|7|30:31:32(qc=5)
REM O 2|1.5|12|13|15|20:21(qc=5)
REM Li 1|1.3|8|9|10|10U:20(qc=5)
REM Fe 3|2.2|2.0|1.0|8|9|10|40:41:32(qc=5)
REM F 2|1.6|10|12|13|20:21(qc=5)
REM 
CELL 1.54180    7.51039    6.77681    8.51792   90.00000   96.29084   90.00000
LATT -1
SFAC Li O  F  S  Fe 
Li     1  0.4130690000000 -0.4356390000000 -0.1565570000000 1.0   0.01
Li     1 -0.0869310000000  0.4356390000000 -0.1565570000000 1.0   0.01
Li     1  0.0895370000000 -0.0973880000000 -0.1540950000000 1.0   0.01
Li     1  0.5895370000000  0.0973880000000 -0.1540950000000 1.0   0.01
O      2  0.5078270000000  0.2832900000000  0.3127680000000 1.0  -0.07
O      2  0.4422650000000  0.4761690000000  0.0719200000000 1.0  -0.04
O      2  0.2204110000000  0.2320790000000  0.1470310000000 1.0  -0.04
O      2  0.4996850000000  0.1200310000000  0.0548930000000 1.0  -0.05
O      2  0.0078270000000 -0.2832900000000  0.3127680000000 1.0  -0.07
O      2 -0.0577350000000 -0.4761690000000  0.0719200000000 1.0  -0.04
O      2 -0.2795890000000 -0.2320790000000  0.1470310000000 1.0  -0.04
O      2 -0.0003150000000 -0.1200310000000  0.0548930000000 1.0  -0.05
O      2  0.1254330000000  0.0821200000000 -0.3400610000000 1.0  -0.05
O      2  0.1799490000000  0.3694880000000 -0.5094190000000 1.0  -0.01
O      2  0.4257520000000  0.2363550000000 -0.3241770000000 1.0  -0.06
O      2  0.1795400000000  0.4078560000000 -0.2184070000000 1.0  -0.01
O      2 -0.3745670000000 -0.0821200000000 -0.3400610000000 1.0  -0.05
O      2 -0.3200510000000 -0.3694880000000 -0.5094190000000 1.0  -0.01
O      2 -0.0742480000000 -0.2363550000000 -0.3241770000000 1.0  -0.06
O      2 -0.3204600000000 -0.4078560000000 -0.2184070000000 1.0  -0.01
F      3  0.4048420000000 -0.1208490000000  0.3368480000000 1.0  -0.15
F      3 -0.0951580000000  0.1208490000000  0.3368480000000 1.0  -0.15
F      3  0.3327210000000 -0.1975100000000 -0.0907020000000 1.0  -0.07
F      3 -0.1672790000000  0.1975100000000 -0.0907020000000 1.0  -0.07
S      4  0.4138850000000  0.2787730000000  0.1468320000000 1.0  -0.02
S      4 -0.0861150000000 -0.2787730000000  0.1468320000000 1.0  -0.02
S      4  0.2225550000000  0.2816040000000 -0.3538820000000 1.0  -0.01
S      4 -0.2774450000000 -0.2816040000000 -0.3538820000000 1.0  -0.01
Fe     5 -0.0541730000000  0.2057690000000  0.1296240000000 1.0  -3.80
Fe     5  0.4458270000000 -0.2057690000000  0.1296240000000 1.0  -3.80
Fe     5  0.0077860000000 -0.0891760000000 -0.5154120000000 1.0  -3.66
Fe     5 -0.4922140000000  0.0891760000000 -0.5154120000000 1.0  -3.66
END
