TITL 4LiFeSO4F-200804-062544-431b52 0.0514 402.304842 -1.51322404E+004 16.0003 16.1771 32 (P212121) n - 1
REM
REM Run started: Tue, 04 Aug 2020 07:14:16 +0100 in /lustre/scratch/uccabz1/launch_tmp/launcher_2020-08-04-05-25-42-714563
REM CASTEP 20.1 from code version af48c487+ pr-geom-scf-spinfix Tue Jun 2 15:39:59 2020 +0100
REM Functional Perdew Burke Ernzerhof Relativity Koelling-Harmon Dispersion off
REM Cut-off 340.0000 eV Grid scale 1.7500 Gmax 16.5316 1/A FBSC none
REM MP grid 3 2 2 Offset 0.000 0.000 0.000 No. kpts 2 Spacing 0.07
REM Total runtime: 2958.68 s
REM Overall efficiency: 71.2857 %
REM
REM 4LiFeSO4F.cell (79c870615ff1d88195b1fe3fe805288c)
REM
REM compiler GCC version 4.9.2
REM options -cpp -iprefix /lustre/shared/ucl/apps/gcc/4.9.2/bin/../lib/gcc/x86_64-unknown-linux-gnu/4.9.2/ -mtune=corei7 -march=x86-64 -g -Og
REM COMMAND_LINE
REM seed 920644087 -754850037 -1778223832 1504460343 2028900079 -627905175 1356684518 182416758 1518700988 -1102353628 -864699475 -505397996
REM
REM S 3|1.8|5|6|7|30:31:32(qc=5)
REM O 2|1.5|12|13|15|20:21(qc=5)
REM Li 1|1.3|8|9|10|10U:20(qc=5)
REM Fe 3|2.2|2.0|1.0|8|9|10|40:41:32(qc=5)
REM F 2|1.6|10|12|13|20:21(qc=5)
REM 
CELL 1.54180    6.26511    7.92652    8.10110   90.00000   90.00000   90.00000
LATT -1
SFAC Li O  F  S  Fe 
Li     1 -0.3683880000000 -0.1655280000000  0.3384150000000 1.0  -0.02
Li     1 -0.1316120000000  0.1655280000000 -0.1615850000000 1.0  -0.02
Li     1  0.3683880000000  0.3344720000000  0.1615850000000 1.0  -0.02
Li     1  0.1316120000000 -0.3344720000000 -0.3384150000000 1.0  -0.02
O      2 -0.0777220000000  0.2137830000000  0.0625310000000 1.0   0.01
O      2 -0.1859240000000  0.0594820000000  0.3150060000000 1.0   0.04
O      2  0.1932760000000  0.1302280000000  0.2669970000000 1.0   0.04
O      2  0.0147470000000 -0.0852420000000  0.0958430000000 1.0   0.07
O      2 -0.4222780000000 -0.2137830000000 -0.4374690000000 1.0   0.01
O      2 -0.3140760000000 -0.0594820000000 -0.1849940000000 1.0   0.04
O      2 -0.6932760000000 -0.1302280000000 -0.2330030000000 1.0   0.04
O      2 -0.5147470000000  0.0852420000000 -0.4041570000000 1.0   0.07
O      2  0.0777220000000 -0.2862170000000  0.4374690000000 1.0   0.01
O      2  0.1859240000000 -0.4405180000000  0.1849940000000 1.0   0.04
O      2 -0.1932760000000 -0.3697720000000  0.2330030000000 1.0   0.04
O      2 -0.0147470000000 -0.5852420000000  0.4041570000000 1.0   0.07
O      2  0.4222780000000  0.2862170000000 -0.0625310000000 1.0   0.01
O      2  0.3140760000000  0.4405180000000 -0.3150060000000 1.0   0.04
O      2  0.6932760000000  0.3697720000000 -0.2669970000000 1.0   0.04
O      2  0.5147470000000  0.5852420000000 -0.0958430000000 1.0   0.07
F      3 -0.0050970000000  0.1550430000000 -0.3649350000000 1.0   0.10
F      3  0.5050970000000 -0.1550430000000  0.1350650000000 1.0   0.10
F      3  0.0050970000000 -0.3449570000000 -0.1350650000000 1.0   0.10
F      3 -0.5050970000000  0.3449570000000  0.3649350000000 1.0   0.10
S      4 -0.0148350000000  0.0840380000000  0.1845150000000 1.0   0.01
S      4 -0.4851650000000 -0.0840380000000 -0.3154850000000 1.0   0.01
S      4  0.0148350000000 -0.4159620000000  0.3154850000000 1.0   0.01
S      4  0.4851650000000  0.4159620000000 -0.1845150000000 1.0   0.01
Fe     5 -0.2371940000000 -0.2491720000000 -0.0034320000000 1.0   3.74
Fe     5 -0.2628060000000  0.2491720000000 -0.5034320000000 1.0   3.74
Fe     5  0.2371940000000  0.2508280000000  0.5034320000000 1.0   3.74
Fe     5  0.2628060000000 -0.2508280000000  0.0034320000000 1.0   3.74
END
