TITL 4LiFeSO4F-200804-084405-0bc706 0.0038 514.153435 -1.51310358E+004 16.0001 16.4396 32 (Iba2) n - 1
REM
REM Run started: Tue, 04 Aug 2020 16:02:43 +0100 in /lustre/scratch/uccabz1/launch_tmp/launcher_2020-08-04-07-44-01-944490
REM CASTEP 20.1 from code version af48c487+ pr-geom-scf-spinfix Tue Jun 2 15:39:59 2020 +0100
REM Functional Perdew Burke Ernzerhof Relativity Koelling-Harmon Dispersion off
REM Cut-off 340.0000 eV Grid scale 1.7500 Gmax 16.5316 1/A FBSC none
REM MP grid 3 2 2 Offset 0.000 0.000 0.000 No. kpts 5 Spacing 0.07
REM Total runtime: 26490.1 s
REM Overall efficiency: 87.3333 %
REM
REM 4LiFeSO4F.cell (79c870615ff1d88195b1fe3fe805288c)
REM
REM compiler GCC version 4.9.2
REM options -cpp -iprefix /lustre/shared/ucl/apps/gcc/4.9.2/bin/../lib/gcc/x86_64-unknown-linux-gnu/4.9.2/ -mtune=corei7 -march=x86-64 -g -Og
REM COMMAND_LINE
REM seed -619277650 1632770650 -1227305354 1785223317 2093973046 838672590 1809317938 -1153045577 -1825210769 -561617221 -1441366838 -1037444393
REM
REM S 3|1.8|5|6|7|30:31:32(qc=5)
REM O 2|1.5|12|13|15|20:21(qc=5)
REM Li 1|1.3|8|9|10|10U:20(qc=5)
REM Fe 3|2.2|2.0|1.0|8|9|10|40:41:32(qc=5)
REM F 2|1.6|10|12|13|20:21(qc=5)
REM 
CELL 1.54180    9.77287    8.75140    8.75140   74.36580   56.05753   56.05753
LATT -1
SFAC Li O  F  S  Fe 
Li     1  0.2871840000000 -0.2050560000000 -0.4416880000000 1.0  -0.02
Li     1 -0.2871840000000  0.4416880000000  0.2050560000000 1.0  -0.02
Li     1 -0.3595600000000 -0.0583120000000 -0.2949440000000 1.0  -0.02
Li     1  0.3595600000000  0.2949440000000  0.0583120000000 1.0  -0.02
O      2 -0.2712790000000 -0.4640480000000 -0.0220900000000 1.0   0.01
O      2  0.0458020000000 -0.5194870000000 -0.2769220000000 1.0   0.06
O      2 -0.2167980000000 -0.2000440000000 -0.1471540000000 1.0   0.06
O      2 -0.2336400000000 -0.3431480000000 -0.3253410000000 1.0   0.06
O      2  0.2712790000000  0.0220900000000  0.4640480000000 1.0   0.01
O      2 -0.0458020000000  0.2769220000000  0.5194870000000 1.0   0.06
O      2  0.2167970000000  0.1471540000000  0.2000440000000 1.0   0.06
O      2  0.2336400000000  0.3253410000000  0.3431480000000 1.0   0.06
O      2  0.2425830000000 -0.4779100000000 -0.0359520000000 1.0   0.01
O      2  0.2493930000000 -0.2230780000000  0.0194870000000 1.0   0.06
O      2  0.4360050000000 -0.3528460000000 -0.2999560000000 1.0   0.06
O      2  0.0978710000000 -0.1746590000000 -0.1568520000000 1.0   0.06
O      2 -0.2425830000000  0.0359520000000  0.4779100000000 1.0   0.01
O      2 -0.2493930000000 -0.0194870000000  0.2230780000000 1.0   0.06
O      2 -0.4360050000000  0.2999560000000  0.3528460000000 1.0   0.06
O      2 -0.0978710000000  0.1568520000000  0.1746590000000 1.0   0.06
F      3 -0.2673440000000 -0.4492600000000  0.3328390000000 1.0   0.12
F      3  0.2673440000000 -0.3328390000000  0.4492600000000 1.0   0.12
F      3 -0.3837650000000  0.1671610000000 -0.0507400000000 1.0   0.12
F      3  0.3837650000000  0.0507400000000 -0.1671610000000 1.0   0.12
S      4 -0.1667810000000 -0.3893190000000 -0.1882010000000 1.0   0.01
S      4  0.1667810000000  0.1882010000000  0.3893190000000 1.0   0.01
S      4  0.2556990000000 -0.3117990000000 -0.1106810000000 1.0   0.01
S      4 -0.2556990000000  0.1106810000000  0.3117990000000 1.0   0.01
Fe     5  0.2769640000000  0.4414120000000 -0.5307880000000 1.0   3.70
Fe     5 -0.2769640000000  0.5307880000000 -0.4414120000000 1.0   3.70
Fe     5  0.1875890000000  0.0307880000000  0.0585880000000 1.0   3.70
Fe     5 -0.1875890000000 -0.0585880000000 -0.0307880000000 1.0   3.70
END
