TITL 4LiFeSO4F-200818-005841-9f082a 0.0195 500.150684 -1.51305980E+004 0.228580 16.2992 32 (Pc) n - 1
REM
REM Run started: Tue, 18 Aug 2020 23:30:07 +0100 in /scratch/scratch/uccabz1/launch_tmp/launcher_2020-08-18-17-53-46-273103
REM CASTEP 19.11| from code version Version unavailable
REM Functional Perdew Burke Ernzerhof Relativity Koelling-Harmon Dispersion off
REM Cut-off 340.0000 eV Grid scale 1.7500 Gmax 16.5316 1/A FBSC none
REM MP grid 3 3 1 Offset 0.000 0.000 0.000 No. kpts 5 Spacing 0.07
REM Total runtime: 16815.2 s
REM Overall efficiency: 77.5714 %
REM
REM
REM
REM compiler GCC version 4.9.2
REM options -cpp -iprefix /scratch/UCL/applications/gcc/4.9.2/bin/../lib/gcc/x86_64-unknown-linux-gnu/4.9.2/ -mtune=corei7 -march=x86-64 -g -O2
REM COMMAND_LINE
REM seed -991172169 -1539576640 -412475915 -1629778366 35767269 -1431832887 -1040611489 716746346 -783462516 1025496176 -947150319 1413973443
REM
REM S 3|1.8|5|6|7|30:31:32(qc=5)
REM O 2|1.5|12|13|15|20:21(qc=5)
REM Li 1|1.3|8|9|10|10U:20(qc=5)
REM Fe 3|2.2|2.0|1.0|8|9|10|40:41:32(qc=5)
REM F 2|1.6|10|12|13|20:21(qc=5)
REM 
CELL 1.54180    5.25239    6.64564   14.61614   90.00000   90.00000  101.38150
LATT -1
SFAC Li O  F  S  Fe 
Li     1 -0.5124840000000  0.2293630000000 -0.3313160000000 1.0   0.00
Li     1 -0.5124840000000 -0.2706370000000  0.3313160000000 1.0   0.00
Li     1  0.0117110000000 -0.5538380000000  0.2161140000000 1.0  -0.01
Li     1  0.0117110000000 -0.0538380000000 -0.2161140000000 1.0  -0.01
O      2 -0.5063960000000 -0.1701920000000 -0.3832970000000 1.0  -0.06
O      2 -0.1913020000000 -0.3162730000000 -0.4759870000000 1.0  -0.08
O      2 -0.3763240000000 -0.4895780000000 -0.3335780000000 1.0  -0.01
O      2 -0.0616470000000 -0.1580120000000 -0.3317760000000 1.0  -0.04
O      2 -0.5063960000000  0.3298080000000  0.3832970000000 1.0  -0.06
O      2 -0.1913020000000  0.1837270000000  0.4759870000000 1.0  -0.08
O      2 -0.3763240000000  0.0104220000000  0.3335780000000 1.0  -0.01
O      2 -0.0616470000000  0.3419880000000  0.3317760000000 1.0  -0.04
O      2  0.5021580000000 -0.3857130000000  0.0385490000000 1.0   0.04
O      2  0.6801010000000 -0.6203880000000  0.1386620000000 1.0   0.05
O      2  0.2004280000000 -0.6652130000000  0.1165990000000 1.0   0.03
O      2  0.4230370000000 -0.3840510000000  0.2073210000000 1.0   0.01
O      2  0.5021580000000  0.1142870000000 -0.0385490000000 1.0   0.04
O      2  0.6801010000000 -0.1203880000000 -0.1386620000000 1.0   0.05
O      2  0.2004280000000 -0.1652130000000 -0.1165990000000 1.0   0.03
O      2  0.4230370000000  0.1159490000000 -0.2073210000000 1.0   0.01
F      3  0.2756430000000  0.1488320000000 -0.4341660000000 1.0  -0.09
F      3  0.2756430000000 -0.3511680000000  0.4341660000000 1.0  -0.09
F      3 -0.0713550000000 -0.0485800000000  0.0500360000000 1.0   0.15
F      3 -0.0713550000000  0.4514200000000 -0.0500360000000 1.0   0.15
S      4 -0.2909330000000 -0.2898730000000 -0.3792970000000 1.0  -0.01
S      4 -0.2909330000000  0.2101270000000  0.3792970000000 1.0  -0.01
S      4  0.4524650000000 -0.5106170000000  0.1240950000000 1.0   0.01
S      4  0.4524650000000 -0.0106170000000 -0.1240950000000 1.0   0.01
Fe     5 -0.1519440000000  0.2191160000000  0.0365930000000 1.0   3.77
Fe     5 -0.1519440000000 -0.2808840000000 -0.0365930000000 1.0   3.77
Fe     5  0.1838270000000 -0.1795010000000 -0.4633570000000 1.0  -3.66
Fe     5  0.1838270000000  0.3204990000000  0.4633570000000 1.0  -3.66
END
