TITL 4LiFeSO4F-200818-051449-21f63f 0.1181 793.589473 -1.51291489E+004 16.0000 16.4434 32 (Cm) n - 1
REM
REM Run started: Wed, 19 Aug 2020 05:49:05 +0100 in /scratch/scratch/uccabz1/launch_tmp/launcher_2020-08-18-19-44-57-902613
REM CASTEP 19.11| from code version Version unavailable
REM Functional Perdew Burke Ernzerhof Relativity Koelling-Harmon Dispersion off
REM Cut-off 340.0000 eV Grid scale 1.7500 Gmax 16.5316 1/A FBSC none
REM MP grid 4 2 2 Offset 0.000 0.000 0.000 No. kpts 6 Spacing 0.07
REM Total runtime: 44500.3 s
REM Overall efficiency: 69.1667 %
REM
REM
REM
REM compiler GCC version 4.9.2
REM options -cpp -iprefix /scratch/UCL/applications/gcc/4.9.2/bin/../lib/gcc/x86_64-unknown-linux-gnu/4.9.2/ -mtune=corei7 -march=x86-64 -g -O2
REM COMMAND_LINE
REM seed -1510616617 -1211908143 397975923 -2101226505 -1706571106 1342936666 911132114 1843256058 172241949 1841312260 1211059331 478852842
REM
REM S 3|1.8|5|6|7|30:31:32(qc=5)
REM O 2|1.5|12|13|15|20:21(qc=5)
REM Li 1|1.3|8|9|10|10U:20(qc=5)
REM Fe 3|2.2|2.0|1.0|8|9|10|40:41:32(qc=5)
REM F 2|1.6|10|12|13|20:21(qc=5)
REM 
CELL 1.54180    5.41202   15.84844   15.84844  119.12825  112.13728  112.13728
LATT -1
SFAC Li O  F  S  Fe 
Li     1  0.2188100000000  0.0460010000000 -0.2444910000000 1.0  -0.01
Li     1  0.2188100000000 -0.2444910000000  0.0460010000000 1.0  -0.01
Li     1 -0.0874790000000 -0.1243910000000  0.3106370000000 1.0  -0.02
Li     1 -0.0874790000000  0.3106370000000 -0.1243910000000 1.0  -0.02
O      2 -0.3449810000000  0.1528320000000 -0.3921920000000 1.0   0.06
O      2 -0.8111480000000 -0.0874720000000 -0.5222670000000 1.0   0.05
O      2 -0.4968780000000  0.1057810000000 -0.2873000000000 1.0   0.01
O      2 -0.1790640000000  0.0468280000000 -0.3413370000000 1.0   0.07
O      2 -0.3449810000000 -0.3921920000000  0.1528320000000 1.0   0.06
O      2 -0.8111480000000 -0.5222670000000 -0.0874720000000 1.0   0.05
O      2 -0.4968780000000 -0.2873000000000  0.1057810000000 1.0   0.01
O      2 -0.1790640000000 -0.3413370000000  0.0468280000000 1.0   0.07
O      2  0.7273790000000 -0.0475110000000  0.3502010000000 1.0   0.00
O      2  0.4030600000000 -0.0684900000000  0.1722470000000 1.0   0.01
O      2  0.8754360000000  0.1533010000000  0.4113540000000 1.0   0.10
O      2  0.3055580000000 -0.0135970000000  0.3274660000000 1.0   0.09
O      2  0.7273790000000  0.3502010000000 -0.0475110000000 1.0   0.00
O      2  0.4030600000000  0.1722470000000 -0.0684900000000 1.0   0.01
O      2  0.8754360000000  0.4113540000000  0.1533010000000 1.0   0.10
O      2  0.3055580000000  0.3274660000000 -0.0135970000000 1.0   0.09
F      3 -0.0191070000000  0.3738400000000 -0.3506230000000 1.0   0.14
F      3 -0.0191070000000 -0.3506230000000  0.3738400000000 1.0   0.14
F      3 -0.1723620000000 -0.1372480000000 -0.3849190000000 1.0   0.14
F      3 -0.1723620000000 -0.3849190000000 -0.1372480000000 1.0   0.14
S      4 -0.4586520000000  0.0568990000000 -0.3842540000000 1.0   0.01
S      4 -0.4586520000000 -0.3842540000000  0.0568990000000 1.0   0.01
S      4  0.5784330000000  0.0009040000000  0.3094150000000 1.0   0.00
S      4  0.5784330000000  0.3094150000000  0.0009040000000 1.0   0.00
Fe     5 -0.3110450000000  0.1857900000000 -0.4971240000000 1.0   3.68
Fe     5 -0.3110450000000 -0.4971240000000  0.1857900000000 1.0   3.68
Fe     5  0.4278510000000 -0.4868790000000 -0.1640800000000 1.0   3.67
Fe     5  0.4278510000000 -0.1640800000000 -0.4868790000000 1.0   3.67
END
