TITL 4LiFeSO4F-200817-232312-5881c5 0.0145 434.651855 -1.51313899E+004 16.0016 16.2202 32 (P-1) n - 1
REM
REM Run started: Tue, 18 Aug 2020 13:12:46 +0100 in /scratch/scratch/uccabz1/launch_tmp/launcher_2020-08-17-22-23-08-914627
REM CASTEP 19.11| from code version Version unavailable
REM Functional Perdew Burke Ernzerhof Relativity Koelling-Harmon Dispersion off
REM Cut-off 340.0000 eV Grid scale 1.7500 Gmax 16.5316 1/A FBSC none
REM MP grid 4 3 1 Offset 0.000 0.000 0.000 No. kpts 6 Spacing 0.07
REM Total runtime: 49911.9 s
REM Overall efficiency: 74.7273 %
REM
REM 4LiFeSO4F.cell (79c870615ff1d88195b1fe3fe805288c)
REM
REM compiler GCC version 4.9.2
REM options -cpp -iprefix /scratch/UCL/applications/gcc/4.9.2/bin/../lib/gcc/x86_64-unknown-linux-gnu/4.9.2/ -mtune=corei7 -march=x86-64 -g -O2
REM COMMAND_LINE
REM seed -762417084 -1745512362 -1952323833 1502461812 -657983898 -1115291408 1423005606 306084431 135855984 -730787390 988697591 -939149459
REM
REM S 3|1.8|5|6|7|30:31:32(qc=5)
REM O 2|1.5|12|13|15|20:21(qc=5)
REM Li 1|1.3|8|9|10|10U:20(qc=5)
REM Fe 3|2.2|2.0|1.0|8|9|10|40:41:32(qc=5)
REM F 2|1.6|10|12|13|20:21(qc=5)
REM 
CELL 1.54180    4.97512    5.31677   18.18112   98.54523   97.82388  110.96928
LATT -1
SFAC Li O  F  S  Fe 
Li     1  0.2805030000000  0.0339390000000 -0.2423070000000 1.0  -0.03
Li     1 -0.2805030000000 -0.0339390000000  0.2423070000000 1.0  -0.03
Li     1  0.4117070000000  0.2386830000000  0.4443130000000 1.0  -0.01
Li     1 -0.4117070000000 -0.2386830000000 -0.4443130000000 1.0  -0.01
O      2  0.3888710000000  0.3628510000000 -0.4422920000000 1.0   0.00
O      2 -0.0423170000000  0.1178720000000 -0.3872530000000 1.0   0.05
O      2  0.4547230000000  0.2420040000000 -0.3164440000000 1.0   0.05
O      2  0.2617940000000 -0.1206700000000 -0.4352770000000 1.0   0.01
O      2 -0.3888710000000 -0.3628510000000  0.4422920000000 1.0   0.00
O      2  0.0423170000000 -0.1178720000000  0.3872530000000 1.0   0.05
O      2 -0.4547230000000 -0.2420040000000  0.3164440000000 1.0   0.05
O      2 -0.2617940000000  0.1206700000000  0.4352770000000 1.0   0.01
O      2  0.0486030000000 -0.3326680000000  0.0683810000000 1.0   0.07
O      2  0.0061780000000  0.1068620000000  0.1217470000000 1.0   0.05
O      2  0.4338660000000  0.0119850000000  0.1731610000000 1.0   0.01
O      2 -0.0544780000000 -0.2491120000000  0.1971390000000 1.0   0.05
O      2 -0.0486030000000  0.3326680000000 -0.0683810000000 1.0   0.07
O      2 -0.0061780000000 -0.1068620000000 -0.1217470000000 1.0   0.05
O      2 -0.4338660000000 -0.0119850000000 -0.1731610000000 1.0   0.01
O      2  0.0544780000000  0.2491120000000 -0.1971390000000 1.0   0.05
F      3 -0.4167620000000 -0.1996680000000 -0.0184570000000 1.0   0.16
F      3  0.4167620000000  0.1996680000000  0.0184570000000 1.0   0.16
F      3 -0.0107800000000 -0.2762470000000 -0.2954140000000 1.0   0.13
F      3  0.0107800000000  0.2762470000000  0.2954140000000 1.0   0.13
S      4  0.2684930000000  0.1484230000000 -0.3978410000000 1.0   0.01
S      4 -0.2684930000000 -0.1484230000000  0.3978410000000 1.0   0.01
S      4  0.1164090000000 -0.1087720000000  0.1402940000000 1.0   0.02
S      4 -0.1164090000000  0.1087720000000 -0.1402940000000 1.0   0.02
Fe     5 -0.1822450000000  0.2230650000000  0.0330070000000 1.0   3.73
Fe     5  0.1822450000000 -0.2230650000000 -0.0330070000000 1.0   3.73
Fe     5 -0.0937500000000 -0.6435380000000 -0.2927350000000 1.0   3.70
Fe     5  0.0937500000000  0.6435380000000  0.2927350000000 1.0   3.70
END
