TITL 4LiFeSO4F-200818-103625-0e6c18 0.0343 389.813970 -1.51297172E+004 16.0001 16.2631 32 (Iba2) n - 1
REM
REM Run started: Wed, 19 Aug 2020 04:02:39 +0100 in /lustre/scratch/uccabz1/launch_tmp/launcher_2020-08-18-17-28-19-322393
REM CASTEP 20.1 from code version af48c487+ pr-geom-scf-spinfix Tue Jun 2 15:39:59 2020 +0100
REM Functional Perdew Burke Ernzerhof Relativity Koelling-Harmon Dispersion off
REM Cut-off 340.0000 eV Grid scale 1.7500 Gmax 16.5316 1/A FBSC none
REM MP grid 3 3 3 Offset 0.000 0.000 0.000 No. kpts 8 Spacing 0.07
REM Total runtime: 34680.1 s
REM Overall efficiency: 96.5 %
REM
REM
REM
REM compiler GCC version 4.9.2
REM options -cpp -iprefix /scratch/UCL/applications/gcc/4.9.2/bin/../lib/gcc/x86_64-unknown-linux-gnu/4.9.2/ -mtune=corei7 -march=x86-64 -g -O2
REM COMMAND_LINE
REM seed -487726945 1852539839 394312642 -1577075672 -932544096 -1892676106 -133192789 1668757398 -1184566153 -1737062805 -1452183890 766575001
REM
REM S 3|1.8|5|6|7|30:31:32(qc=5)
REM O 2|1.5|12|13|15|20:21(qc=5)
REM Li 1|1.3|8|9|10|10U:20(qc=5)
REM Fe 3|2.2|2.0|1.0|8|9|10|40:41:32(qc=5)
REM F 2|1.6|10|12|13|20:21(qc=5)
REM 
CELL 1.54180    8.04499    8.04499    8.04499  110.65444   99.61781  118.69807
LATT -1
SFAC Li O  F  S  Fe 
Li     1  0.0075030000000  0.2707070000000 -0.1564550000000 1.0  -0.03
Li     1  0.4271620000000  0.1639590000000  0.1564550000000 1.0  -0.03
Li     1  0.5075030000000 -0.3360410000000 -0.2632030000000 1.0  -0.03
Li     1 -0.0728380000000 -0.2292930000000  0.2632030000000 1.0  -0.03
O      2  0.3061790000000  0.3598540000000 -0.3363830000000 1.0   0.03
O      2  0.4300850000000  0.2945840000000 -0.5937340000000 1.0   0.01
O      2  0.0562030000000  0.1188030000000 -0.6883530000000 1.0   0.04
O      2  0.2130660000000 -0.0085280000000 -0.5331360000000 1.0   0.06
O      2 -0.3037630000000 -0.3574380000000  0.3363830000000 1.0   0.03
O      2 -0.1116810000000  0.0238190000000  0.5937340000000 1.0   0.01
O      2 -0.1928440000000 -0.2554450000000  0.6883530000000 1.0   0.04
O      2 -0.4753910000000 -0.2537980000000  0.5331360000000 1.0   0.06
O      2 -0.1938210000000  0.1425620000000 -0.0536750000000 1.0   0.03
O      2 -0.0699150000000  0.5238190000000  0.1355000000000 1.0   0.01
O      2 -0.4437970000000  0.2445550000000 -0.0626000000000 1.0   0.04
O      2 -0.2869340000000  0.2462020000000  0.2215940000000 1.0   0.06
O      2  0.1962370000000 -0.1401460000000  0.0536750000000 1.0   0.03
O      2  0.3883190000000 -0.2054160000000 -0.1355000000000 1.0   0.01
O      2  0.3071560000000 -0.3811970000000  0.0626000000000 1.0   0.04
O      2  0.0246090000000 -0.5085280000000 -0.2215940000000 1.0   0.06
F      3 -0.2872210000000 -0.2872210000000 -0.0000000000000 1.0   0.10
F      3  0.2127790000000  0.2127790000000 -0.0000000000000 1.0   0.10
F      3  0.1223490000000 -0.3776510000000  0.5000000000000 1.0   0.14
F      3 -0.3776510000000  0.1223490000000  0.5000000000000 1.0   0.14
S      4  0.2573950000000  0.1978020000000 -0.5368990000000 1.0   0.01
S      4 -0.2652990000000 -0.2057060000000  0.5368990000000 1.0   0.01
S      4 -0.2426050000000  0.2942940000000  0.0595930000000 1.0   0.01
S      4  0.2347010000000 -0.3021980000000 -0.0595930000000 1.0   0.01
Fe     5  0.3738610000000 -0.1261390000000  0.5000000000000 1.0   3.79
Fe     5 -0.1261390000000  0.3738610000000 -0.5000000000000 1.0   3.79
Fe     5 -0.0347970000000 -0.0347970000000 -0.0000000000000 1.0   3.75
Fe     5  0.4652030000000  0.4652030000000 -0.0000000000000 1.0   3.75
END
