TITL 4LiFeSO4F-200818-155640-c2b2a3 0.0105 475.957888 -1.51308330E+004 16.0000 16.3049 32 (P212121) n - 1
REM
REM Run started: Tue, 18 Aug 2020 18:00:17 +0100 in /lustre/scratch/uccabz1/launch_tmp/launcher_2020-08-18-14-56-36-867043
REM CASTEP 20.1 from code version af48c487+ pr-geom-scf-spinfix Tue Jun 2 15:39:59 2020 +0100
REM Functional Perdew Burke Ernzerhof Relativity Koelling-Harmon Dispersion off
REM Cut-off 340.0000 eV Grid scale 1.7500 Gmax 16.5316 1/A FBSC none
REM MP grid 4 2 2 Offset 0.000 0.000 0.000 No. kpts 2 Spacing 0.07
REM Total runtime: 7638.16 s
REM Overall efficiency: 75 %
REM
REM 4LiFeSO4F.cell (79c870615ff1d88195b1fe3fe805288c)
REM
REM compiler GCC version 4.9.2
REM options -cpp -iprefix /lustre/shared/ucl/apps/gcc/4.9.2/bin/../lib/gcc/x86_64-unknown-linux-gnu/4.9.2/ -mtune=corei7 -march=x86-64 -g -Og
REM COMMAND_LINE
REM seed 398707695 -1790585137 1441628554 584258071 -393839173 -1268805723 1896875194 -1199907566 698680195 1825224944 -1818554240 294386271
REM
REM S 3|1.8|5|6|7|30:31:32(qc=5)
REM O 2|1.5|12|13|15|20:21(qc=5)
REM Li 1|1.3|8|9|10|10U:20(qc=5)
REM Fe 3|2.2|2.0|1.0|8|9|10|40:41:32(qc=5)
REM F 2|1.6|10|12|13|20:21(qc=5)
REM 
CELL 1.54180    4.40188    9.10239   11.87886   90.00000   90.00000   90.00000
LATT -1
SFAC Li O  F  S  Fe 
Li     1  0.5630750000000  0.4019690000000  0.0351130000000 1.0  -0.02
Li     1 -0.0630750000000 -0.4019690000000 -0.4648870000000 1.0  -0.02
Li     1 -0.5630750000000 -0.0980310000000  0.4648870000000 1.0  -0.02
Li     1  0.0630750000000  0.0980310000000 -0.0351130000000 1.0  -0.02
O      2  0.2827250000000 -0.1131390000000  0.3099370000000 1.0   0.06
O      2 -0.1470340000000 -0.2207170000000  0.2078570000000 1.0   0.06
O      2 -0.1284140000000 -0.2252550000000  0.4180230000000 1.0   0.01
O      2  0.2098200000000 -0.3822730000000  0.3043340000000 1.0   0.05
O      2 -0.7827250000000  0.1131390000000 -0.1900630000000 1.0   0.06
O      2 -0.3529660000000  0.2207170000000 -0.2921430000000 1.0   0.06
O      2 -0.3715860000000  0.2252550000000 -0.0819770000000 1.0   0.01
O      2 -0.7098200000000  0.3822730000000 -0.1956660000000 1.0   0.05
O      2 -0.2827250000000  0.3868610000000  0.1900630000000 1.0   0.06
O      2  0.1470340000000  0.2792830000000  0.2921430000000 1.0   0.06
O      2  0.1284140000000  0.2747450000000  0.0819770000000 1.0   0.01
O      2 -0.2098200000000  0.1177270000000  0.1956660000000 1.0   0.05
O      2  0.7827250000000 -0.3868610000000 -0.3099370000000 1.0   0.06
O      2  0.3529660000000 -0.2792830000000 -0.2078570000000 1.0   0.06
O      2  0.3715860000000 -0.2747450000000 -0.4180230000000 1.0   0.01
O      2  0.7098200000000 -0.1177270000000 -0.3043340000000 1.0   0.05
F      3  0.2665540000000 -0.0414280000000  0.0486770000000 1.0   0.11
F      3  0.2334460000000  0.0414280000000  0.5486770000000 1.0   0.11
F      3 -0.2665540000000  0.4585720000000 -0.5486770000000 1.0   0.11
F      3 -0.2334460000000 -0.4585720000000 -0.0486770000000 1.0   0.11
S      4  0.0486200000000 -0.2376270000000  0.3110120000000 1.0   0.02
S      4 -0.5486200000000  0.2376270000000 -0.1889880000000 1.0   0.02
S      4 -0.0486200000000  0.2623730000000  0.1889880000000 1.0   0.02
S      4  0.5486200000000 -0.2623730000000 -0.3110120000000 1.0   0.02
Fe     5 -0.5420330000000  0.4317020000000  0.3329130000000 1.0   3.72
Fe     5  0.0420330000000 -0.4317020000000 -0.1670870000000 1.0   3.72
Fe     5  0.5420330000000 -0.0682980000000  0.1670870000000 1.0   3.72
Fe     5 -0.0420330000000  0.0682980000000 -0.3329130000000 1.0   3.72
END
