TITL 4LiFeSO4F-200804-074432-e48c8f -0.0436 504.918667 -1.51295230E+004 16.0000 16.2039 32 (I41) n - 1
REM
REM Run started: Tue, 04 Aug 2020 21:05:44 +0100 in /lustre/scratch/uccabz1/launch_tmp/launcher_2020-08-04-15-44-01-830609
REM CASTEP 20.1 from code version af48c487+ pr-geom-scf-spinfix Tue Jun 2 15:39:59 2020 +0100
REM Functional Perdew Burke Ernzerhof Relativity Koelling-Harmon Dispersion off
REM Cut-off 340.0000 eV Grid scale 1.7500 Gmax 16.5316 1/A FBSC none
REM MP grid 3 3 2 Offset 0.000 0.000 0.000 No. kpts 9 Spacing 0.07
REM Total runtime: 16634.3 s
REM Overall efficiency: 98.1667 %
REM
REM
REM
REM compiler GCC version 4.9.2
REM options -cpp -iprefix /lustre/shared/ucl/apps/gcc/4.9.2/bin/../lib/gcc/x86_64-unknown-linux-gnu/4.9.2/ -mtune=corei7 -march=x86-64 -g -Og
REM COMMAND_LINE
REM seed -1366379866 -1163065018 1540418395 1536771729 -1182575450 -181457102 -719720871 -713072864 -1971103492 -1743625194 -125628641 -1724336026
REM
REM S 3|1.8|5|6|7|30:31:32(qc=5)
REM O 2|1.5|12|13|15|20:21(qc=5)
REM Li 1|1.3|8|9|10|10U:20(qc=5)
REM Fe 3|2.2|2.0|1.0|8|9|10|40:41:32(qc=5)
REM F 2|1.6|10|12|13|20:21(qc=5)
REM 
CELL 1.54180    8.72340    8.72340    8.72340  106.00294  106.00294  116.65559
LATT -1
SFAC Li O  F  S  Fe 
Li     1 -0.2814710000000 -0.0923280000000 -0.1929860000000 1.0  -0.00
Li     1  0.1006590000000 -0.0884840000000  0.1929880000000 1.0  -0.00
Li     1 -0.3384840000000 -0.0314710000000  0.3108580000000 1.0  -0.00
Li     1 -0.3423280000000  0.3506590000000 -0.3108560000000 1.0  -0.00
O      2 -0.4542630000000  0.0852680000000  0.2029560000000 1.0   0.01
O      2 -0.3189850000000  0.4355950000000  0.2855480000000 1.0   0.09
O      2 -0.4942790000000  0.2741060000000  0.4358920000000 1.0   0.01
O      2 -0.6577500000000  0.2043450000000  0.1209480000000 1.0   0.12
O      2 -0.1176870000000  0.3427820000000 -0.2029540000000 1.0   0.01
O      2  0.1500480000000  0.3954690000000 -0.2855460000000 1.0   0.09
O      2 -0.1617850000000  0.0698300000000 -0.4358900000000 1.0   0.01
O      2  0.0833980000000  0.2213030000000 -0.1209460000000 1.0   0.12
O      2  0.0927820000000 -0.2042630000000 -0.0395300000000 1.0   0.01
O      2  0.1454690000000 -0.0689850000000 -0.2545780000000 1.0   0.09
O      2 -0.1801700000000 -0.2442790000000 -0.2683840000000 1.0   0.01
O      2 -0.0286970000000 -0.4077500000000 -0.3620930000000 1.0   0.12
O      2 -0.1647320000000  0.1323130000000  0.0395320000000 1.0   0.01
O      2  0.1855950000000  0.4000480000000  0.2545800000000 1.0   0.09
O      2  0.0241060000000  0.0882150000000  0.2683860000000 1.0   0.01
O      2 -0.0456550000000  0.3333980000000  0.3620950000000 1.0   0.12
F      3 -0.4869200000000  0.3263130000000 -0.1879220000000 1.0   0.12
F      3  0.5142360000000 -0.2989970000000  0.1879240000000 1.0   0.12
F      3  0.4510030000000 -0.2369200000000 -0.3132320000000 1.0   0.12
F      3  0.0763130000000 -0.2357640000000  0.3132340000000 1.0   0.12
S      4 -0.4735530000000  0.2471760000000  0.2690600000000 1.0   0.00
S      4 -0.0218830000000  0.2573880000000 -0.2690580000000 1.0   0.00
S      4  0.0073880000000 -0.2235530000000 -0.2207280000000 1.0   0.00
S      4 -0.0028240000000  0.2281170000000  0.2207300000000 1.0   0.00
Fe     5  0.3422190000000 -0.5557880000000  0.1261890000000 1.0   3.64
Fe     5  0.3180240000000  0.2160310000000 -0.1261870000000 1.0   3.64
Fe     5 -0.0339690000000 -0.4077810000000  0.3980080000000 1.0   3.64
Fe     5  0.1942120000000 -0.4319760000000 -0.3980060000000 1.0   3.64
END
