TITL 4LiFeSO4F-200818-032323-40c9fe 0.0646 420.900885 -1.51295493E+004 16.0000 16.3582 32 (Cc) n - 1
REM
REM Run started: Tue, 18 Aug 2020 09:09:07 +0100 in /lustre/scratch/uccabz1/launch_tmp/launcher_2020-08-18-02-23-17-569123
REM CASTEP 20.1 from code version af48c487+ pr-geom-scf-spinfix Tue Jun 2 15:39:59 2020 +0100
REM Functional Perdew Burke Ernzerhof Relativity Koelling-Harmon Dispersion off
REM Cut-off 340.0000 eV Grid scale 1.7500 Gmax 16.5316 1/A FBSC none
REM MP grid 4 3 1 Offset 0.000 0.000 0.000 No. kpts 6 Spacing 0.07
REM Total runtime: 21172.5 s
REM Overall efficiency: 74.5556 %
REM
REM 4LiFeSO4F.cell (79c870615ff1d88195b1fe3fe805288c)
REM
REM compiler GCC version 4.9.2
REM options -cpp -iprefix /lustre/shared/ucl/apps/gcc/4.9.2/bin/../lib/gcc/x86_64-unknown-linux-gnu/4.9.2/ -mtune=corei7 -march=x86-64 -g -Og
REM COMMAND_LINE
REM seed 1414174172 -1175239278 -1006822781 -1014891470 -23690073 -1408429812 1473409699 1389902420 1335728356 -112129006 322868804 -422652864
REM
REM S 3|1.8|5|6|7|30:31:32(qc=5)
REM O 2|1.5|12|13|15|20:21(qc=5)
REM Li 1|1.3|8|9|10|10U:20(qc=5)
REM Fe 3|2.2|2.0|1.0|8|9|10|40:41:32(qc=5)
REM F 2|1.6|10|12|13|20:21(qc=5)
REM 
CELL 1.54180    5.01912    6.29852   14.69081   98.10624   90.00000  113.48049
LATT -1
SFAC Li O  F  S  Fe 
Li     1  0.3335230000000 -0.9409940000000 -0.5420720000000 1.0  -0.01
Li     1 -0.2745180000000  0.0590060000000 -0.0420720000000 1.0  -0.01
Li     1 -0.4020060000000  0.5943150000000  0.4091950000000 1.0  -0.01
Li     1 -0.0036790000000 -0.4056850000000 -0.0908050000000 1.0  -0.01
O      2 -0.2818630000000 -0.2536910000000 -0.0379280000000 1.0   0.01
O      2 -0.7918460000000 -0.5127890000000 -0.0119430000000 1.0   0.01
O      2 -0.3804190000000 -0.5203020000000  0.0759810000000 1.0   0.07
O      2 -0.4470890000000 -0.6690260000000 -0.0883120000000 1.0   0.06
O      2  0.0281720000000  0.7463090000000  0.4620720000000 1.0   0.01
O      2  0.2790580000000  0.4872110000000  0.4880570000000 1.0   0.01
O      2 -0.1398830000000  0.4796980000000  0.5759810000000 1.0   0.07
O      2 -0.2219370000000  0.3309740000000  0.4116880000000 1.0   0.06
O      2  0.0734580000000  0.1215080000000  0.1655150000000 1.0   0.06
O      2  0.5768360000000  0.1954390000000  0.2114680000000 1.0   0.11
O      2  0.3710340000000 -0.0087320000000  0.0549500000000 1.0   0.02
O      2  0.2010760000000 -0.2075870000000  0.1903210000000 1.0   0.08
O      2  0.0480490000000  0.1215080000000 -0.3344850000000 1.0   0.06
O      2 -0.3813970000000  0.1954390000000 -0.2885320000000 1.0   0.11
O      2 -0.3797660000000 -0.0087320000000 -0.4450500000000 1.0   0.02
O      2 -0.4086620000000 -0.2075870000000 -0.3096790000000 1.0   0.08
F      3 -0.0447720000000  0.1017720000000 -0.1436380000000 1.0   0.13
F      3  0.1465440000000  0.1017720000000  0.3563620000000 1.0   0.13
F      3  0.0503780000000 -0.3411790000000 -0.2056440000000 1.0   0.14
F      3 -0.3915580000000  0.6588210000000  0.2943560000000 1.0   0.14
S      4 -0.4851390000000 -0.4836210000000 -0.0134620000000 1.0   0.01
S      4  0.0015180000000  0.5163790000000  0.4865380000000 1.0   0.01
S      4  0.2984920000000  0.0198290000000  0.1511980000000 1.0   0.02
S      4 -0.2786630000000  0.0198290000000 -0.3488020000000 1.0   0.02
Fe     5  0.2921480000000  0.1875350000000 -0.2107650000000 1.0   3.62
Fe     5 -0.1046130000000  0.1875350000000  0.2892350000000 1.0   3.62
Fe     5 -0.1941820000000  0.5555130000000  0.2020890000000 1.0   3.70
Fe     5 -0.2503050000000 -0.4444870000000 -0.2979110000000 1.0   3.70
END
