TITL 4LiFeSO4F-200804-090113-13c0ea 0.0034 439.361267 -1.51301002E+004 16.0000 16.1855 32 (P43) n - 1
REM
REM Run started: Tue, 04 Aug 2020 11:50:22 +0100 in /lustre/scratch/uccabz1/launch_tmp/launcher_2020-08-04-08-01-04-302137
REM CASTEP 20.1 from code version af48c487+ pr-geom-scf-spinfix Tue Jun 2 15:39:59 2020 +0100
REM Functional Perdew Burke Ernzerhof Relativity Koelling-Harmon Dispersion off
REM Cut-off 340.0000 eV Grid scale 1.7500 Gmax 16.5316 1/A FBSC none
REM MP grid 3 3 1 Offset 0.000 0.000 0.000 No. kpts 3 Spacing 0.07
REM Total runtime: 10419.9 s
REM Overall efficiency: 78.8182 %
REM
REM 4LiFeSO4F.cell (79c870615ff1d88195b1fe3fe805288c)
REM
REM compiler GCC version 4.9.2
REM options -cpp -iprefix /lustre/shared/ucl/apps/gcc/4.9.2/bin/../lib/gcc/x86_64-unknown-linux-gnu/4.9.2/ -mtune=corei7 -march=x86-64 -g -Og
REM COMMAND_LINE
REM seed 1166318213 -1839557957 1029950518 -1783811 -99632588 -1070483677 -262447612 -934073659 -1396704540 717980380 1599036649 832611845
REM
REM S 3|1.8|5|6|7|30:31:32(qc=5)
REM O 2|1.5|12|13|15|20:21(qc=5)
REM Li 1|1.3|8|9|10|10U:20(qc=5)
REM Fe 3|2.2|2.0|1.0|8|9|10|40:41:32(qc=5)
REM F 2|1.6|10|12|13|20:21(qc=5)
REM 
CELL 1.54180    5.34436    5.34436   15.38262   90.00000   90.00000   90.00000
LATT -1
SFAC Li O  F  S  Fe 
Li     1  0.1866970000000  0.1133290000000  0.3555820000000 1.0  -0.03
Li     1 -0.1866970000000 -0.1133290000000 -0.1444180000000 1.0  -0.03
Li     1 -0.1133290000000  0.1866970000000  0.1055820000000 1.0  -0.03
Li     1  0.1133290000000 -0.1866970000000 -0.3944180000000 1.0  -0.03
O      2 -0.2002600000000 -0.3848750000000 -0.3411960000000 1.0   0.05
O      2 -0.6595120000000 -0.3796380000000 -0.3094490000000 1.0   0.03
O      2 -0.4824060000000 -0.0756170000000 -0.4057820000000 1.0   0.08
O      2 -0.3804820000000 -0.0536950000000 -0.2494410000000 1.0   0.02
O      2  0.2002600000000  0.3848750000000  0.1588040000000 1.0   0.05
O      2  0.6595120000000  0.3796380000000  0.1905510000000 1.0   0.03
O      2  0.4824060000000  0.0756170000000  0.0942180000000 1.0   0.08
O      2  0.3804820000000  0.0536950000000  0.2505590000000 1.0   0.02
O      2  0.3848750000000 -0.2002600000000  0.4088040000000 1.0   0.05
O      2  0.3796380000000 -0.6595120000000  0.4405510000000 1.0   0.03
O      2  0.0756170000000 -0.4824060000000  0.3442180000000 1.0   0.08
O      2  0.0536950000000 -0.3804820000000  0.5005590000000 1.0   0.02
O      2 -0.3848750000000  0.2002600000000 -0.0911960000000 1.0   0.05
O      2 -0.3796380000000  0.6595120000000 -0.0594490000000 1.0   0.03
O      2 -0.0756170000000  0.4824060000000 -0.1557820000000 1.0   0.08
O      2 -0.0536950000000  0.3804820000000  0.0005590000000 1.0   0.02
F      3  0.1281050000000 -0.0576490000000 -0.1023440000000 1.0   0.12
F      3 -0.1281050000000  0.0576490000000  0.3976560000000 1.0   0.12
F      3  0.0576490000000  0.1281050000000 -0.3523440000000 1.0   0.12
F      3 -0.0576490000000 -0.1281050000000  0.1476560000000 1.0   0.12
S      4 -0.4266050000000 -0.2251240000000 -0.3230550000000 1.0   0.02
S      4  0.4266050000000  0.2251240000000  0.1769450000000 1.0   0.02
S      4  0.2251240000000 -0.4266050000000  0.4269450000000 1.0   0.02
S      4 -0.2251240000000  0.4266050000000 -0.0730550000000 1.0   0.02
Fe     5 -0.3808550000000  0.0400520000000 -0.5201390000000 1.0   3.71
Fe     5  0.3808550000000 -0.0400520000000 -0.0201390000000 1.0   3.71
Fe     5 -0.0400520000000 -0.3808550000000  0.2298610000000 1.0   3.71
Fe     5  0.0400520000000  0.3808550000000 -0.2701390000000 1.0   3.71
END
