TITL 4LiFeSO4F-200818-063319-2181f4 0.0051 499.253935 -1.51302518E+004 16.0000 16.3630 32 (Cc) n - 1
REM
REM Run started: Tue, 18 Aug 2020 11:21:46 +0100 in /lustre/scratch/uccabz1/launch_tmp/launcher_2020-08-18-05-33-17-374261
REM CASTEP 20.1 from code version af48c487+ pr-geom-scf-spinfix Tue Jun 2 15:39:59 2020 +0100
REM Functional Perdew Burke Ernzerhof Relativity Koelling-Harmon Dispersion off
REM Cut-off 340.0000 eV Grid scale 1.7500 Gmax 16.5316 1/A FBSC none
REM MP grid 2 2 2 Offset 0.000 0.000 0.000 No. kpts 3 Spacing 0.07
REM Total runtime: 17387.3 s
REM Overall efficiency: 73.4545 %
REM
REM 4LiFeSO4F.cell (79c870615ff1d88195b1fe3fe805288c)
REM
REM compiler GCC version 4.9.2
REM options -cpp -iprefix /lustre/shared/ucl/apps/gcc/4.9.2/bin/../lib/gcc/x86_64-unknown-linux-gnu/4.9.2/ -mtune=corei7 -march=x86-64 -g -Og
REM COMMAND_LINE
REM seed 2123659490 89125930 561171165 -1343908588 -138092356 1411826351 1836820144 -1418614413 -1414107122 -1218675125 337091889 1930069965
REM
REM S 3|1.8|5|6|7|30:31:32(qc=5)
REM O 2|1.5|12|13|15|20:21(qc=5)
REM Li 1|1.3|8|9|10|10U:20(qc=5)
REM Fe 3|2.2|2.0|1.0|8|9|10|40:41:32(qc=5)
REM F 2|1.6|10|12|13|20:21(qc=5)
REM 
CELL 1.54180    7.91515    8.17684    8.17684   72.00838   84.09943   84.09943
LATT -1
SFAC Li O  F  S  Fe 
Li     1  0.1019250000000  0.2137800000000 -0.3892910000000 1.0  -0.02
Li     1 -0.3980750000000 -0.3892910000000  0.2137800000000 1.0  -0.02
Li     1  0.4332480000000 -0.0525860000000 -0.3248720000000 1.0  -0.01
Li     1 -0.0667520000000 -0.3248720000000 -0.0525860000000 1.0  -0.01
O      2 -0.2898960000000  0.0573840000000  0.3262380000000 1.0   0.09
O      2 -0.0844690000000 -0.1785400000000  0.4772000000000 1.0   0.08
O      2 -0.2698120000000 -0.2409660000000  0.2981670000000 1.0   0.07
O      2 -0.3982810000000 -0.1771080000000  0.5640440000000 1.0   0.02
O      2  0.2101040000000  0.3262380000000  0.0573840000000 1.0   0.09
O      2  0.4155310000000  0.4772000000000 -0.1785400000000 1.0   0.08
O      2  0.2301880000000  0.2981670000000 -0.2409660000000 1.0   0.07
O      2  0.1017190000000  0.5640440000000 -0.1771080000000 1.0   0.02
O      2 -0.4102670000000  0.1062890000000 -0.2570750000000 1.0   0.09
O      2 -0.2298920000000 -0.1293920000000 -0.0861000000000 1.0   0.02
O      2 -0.2238970000000  0.1675880000000 -0.0664620000000 1.0   0.11
O      2 -0.0990060000000  0.0993160000000 -0.3245460000000 1.0   0.02
O      2  0.0897330000000 -0.2570750000000  0.1062890000000 1.0   0.09
O      2  0.2701080000000 -0.0861000000000 -0.1293920000000 1.0   0.02
O      2  0.2761030000000 -0.0664620000000  0.1675880000000 1.0   0.11
O      2  0.4009940000000 -0.3245460000000  0.0993160000000 1.0   0.02
F      3  0.5395480000000  0.4420120000000  0.4164340000000 1.0   0.13
F      3  0.0395480000000  0.4164340000000  0.4420120000000 1.0   0.13
F      3  0.2801880000000  0.0985950000000  0.4832200000000 1.0   0.09
F      3 -0.2198120000000  0.4832200000000  0.0985950000000 1.0   0.09
S      4 -0.2649000000000 -0.1347590000000  0.4218420000000 1.0   0.01
S      4  0.2351000000000  0.4218420000000 -0.1347590000000 1.0   0.01
S      4 -0.2335800000000  0.0554230000000 -0.1837950000000 1.0   0.01
S      4  0.2664200000000 -0.1837950000000  0.0554230000000 1.0   0.01
Fe     5 -0.2444830000000  0.2483820000000  0.1283590000000 1.0   3.60
Fe     5  0.2555170000000  0.1283590000000  0.2483820000000 1.0   3.60
Fe     5 -0.0164950000000 -0.3520400000000  0.3380480000000 1.0   3.69
Fe     5 -0.5164950000000  0.3380480000000 -0.3520400000000 1.0   3.69
END
