TITL 4LiFeSO4F-200804-081923-8cf48c -0.0094 427.008920 -1.51282279E+004 15.9998 16.2594 32 (P21/m) n - 1
REM
REM Run started: Tue, 04 Aug 2020 14:05:24 +0100 in /lustre/scratch/uccabz1/launch_tmp/launcher_2020-08-04-07-19-12-194151
REM CASTEP 20.1 from code version af48c487+ pr-geom-scf-spinfix Tue Jun 2 15:39:59 2020 +0100
REM Functional Perdew Burke Ernzerhof Relativity Koelling-Harmon Dispersion off
REM Cut-off 340.0000 eV Grid scale 1.7500 Gmax 16.5316 1/A FBSC none
REM MP grid 3 2 2 Offset 0.000 0.000 0.000 No. kpts 3 Spacing 0.07
REM Total runtime: 21357.7 s
REM Overall efficiency: 76.1 %
REM
REM 4LiFeSO4F.cell (79c870615ff1d88195b1fe3fe805288c)
REM
REM compiler GCC version 4.9.2
REM options -cpp -iprefix /lustre/shared/ucl/apps/gcc/4.9.2/bin/../lib/gcc/x86_64-unknown-linux-gnu/4.9.2/ -mtune=corei7 -march=x86-64 -g -Og
REM COMMAND_LINE
REM seed 1352747230 -101205936 100010896 538531410 -1785459392 -380153396 -2044346979 -574718264 -1823890877 -2129432746 -990173303 300587127
REM
REM S 3|1.8|5|6|7|30:31:32(qc=5)
REM O 2|1.5|12|13|15|20:21(qc=5)
REM Li 1|1.3|8|9|10|10U:20(qc=5)
REM Fe 3|2.2|2.0|1.0|8|9|10|40:41:32(qc=5)
REM F 2|1.6|10|12|13|20:21(qc=5)
REM 
CELL 1.54180    5.07546    8.96606    9.49948   90.00000   90.00000   98.96688
LATT -1
SFAC Li O  F  S  Fe 
Li     1 -0.0929130000000  0.1381820000000  0.4058120000000 1.0  -0.03
Li     1  0.0929130000000 -0.1381820000000 -0.0941880000000 1.0  -0.03
Li     1  0.0929130000000 -0.1381820000000 -0.4058120000000 1.0  -0.03
Li     1 -0.0929130000000  0.1381820000000  0.0941880000000 1.0  -0.03
O      2  0.3872340000000  0.1146360000000 -0.1131640000000 1.0   0.04
O      2  0.5602640000000  0.1921960000000  0.1170270000000 1.0   0.05
O      2  0.1725140000000  0.2938350000000  0.0155890000000 1.0   0.04
O      2  0.6340610000000  0.3752310000000 -0.0735230000000 1.0   0.04
O      2 -0.3872340000000 -0.1146360000000  0.3868360000000 1.0   0.04
O      2 -0.5602640000000 -0.1921960000000  0.6170270000000 1.0   0.05
O      2 -0.1725140000000 -0.2938350000000  0.5155890000000 1.0   0.04
O      2 -0.6340610000000 -0.3752310000000  0.4264770000000 1.0   0.04
O      2 -0.3872340000000 -0.1146360000000  0.1131640000000 1.0   0.04
O      2 -0.5602640000000 -0.1921960000000 -0.1170270000000 1.0   0.05
O      2 -0.1725140000000 -0.2938350000000 -0.0155890000000 1.0   0.04
O      2 -0.6340610000000 -0.3752310000000  0.0735230000000 1.0   0.04
O      2  0.3872340000000  0.1146360000000 -0.3868360000000 1.0   0.04
O      2  0.5602640000000  0.1921960000000 -0.6170270000000 1.0   0.05
O      2  0.1725140000000  0.2938350000000 -0.5155890000000 1.0   0.04
O      2  0.6340610000000  0.3752310000000 -0.4264770000000 1.0   0.04
F      3  0.0542200000000  0.0603910000000  0.2500000000000 1.0   0.07
F      3 -0.0542200000000 -0.0603910000000 -0.2500000000000 1.0   0.07
F      3 -0.0571230000000 -0.5195630000000  0.2500000000000 1.0   0.12
F      3  0.0571230000000  0.5195630000000 -0.2500000000000 1.0   0.12
S      4  0.4423910000000  0.2486950000000 -0.0154880000000 1.0   0.02
S      4 -0.4423910000000 -0.2486950000000  0.4845120000000 1.0   0.02
S      4 -0.4423910000000 -0.2486950000000  0.0154880000000 1.0   0.02
S      4  0.4423910000000  0.2486950000000 -0.4845120000000 1.0   0.02
Fe     5  0.0000000000000 -0.5000000000000  0.0000000000000 1.0   3.82
Fe     5  0.0000000000000  0.5000000000000  0.5000000000000 1.0   3.82
Fe     5 -0.4110270000000 -0.0055680000000 -0.2500000000000 1.0   3.67
Fe     5  0.4110270000000  0.0055680000000  0.2500000000000 1.0   3.67
END
