TITL 4LiFeSO4F-200804-080711-026cc4 -0.0020 407.069271 -1.51311000E+004 16.0003 16.2370 32 (P41) n - 1
REM
REM Run started: Tue, 04 Aug 2020 09:23:03 +0100 in /lustre/scratch/uccabz1/launch_tmp/launcher_2020-08-04-07-07-09-274042
REM CASTEP 20.1 from code version af48c487+ pr-geom-scf-spinfix Tue Jun 2 15:39:59 2020 +0100
REM Functional Perdew Burke Ernzerhof Relativity Koelling-Harmon Dispersion off
REM Cut-off 340.0000 eV Grid scale 1.7500 Gmax 16.5316 1/A FBSC none
REM MP grid 2 2 2 Offset 0.000 0.000 0.000 No. kpts 1 Spacing 0.07
REM Total runtime: 4574.57 s
REM Overall efficiency: 69.3 %
REM
REM 4LiFeSO4F.cell (79c870615ff1d88195b1fe3fe805288c)
REM
REM compiler GCC version 4.9.2
REM options -cpp -iprefix /lustre/shared/ucl/apps/gcc/4.9.2/bin/../lib/gcc/x86_64-unknown-linux-gnu/4.9.2/ -mtune=corei7 -march=x86-64 -g -Og
REM COMMAND_LINE
REM seed 1677810840 553837406 -632421818 1757510347 1603667970 650069409 -364315117 -1143296967 -210950473 466877000 -1686393373 -1962052908
REM
REM S 3|1.8|5|6|7|30:31:32(qc=5)
REM O 2|1.5|12|13|15|20:21(qc=5)
REM Li 1|1.3|8|9|10|10U:20(qc=5)
REM Fe 3|2.2|2.0|1.0|8|9|10|40:41:32(qc=5)
REM F 2|1.6|10|12|13|20:21(qc=5)
REM 
CELL 1.54180    7.35365    7.44017    7.44017   90.00000   90.00000   90.00000
LATT -1
SFAC Li O  F  S  Fe 
Li     1  0.4872040000000 -0.0624220000000  0.2150490000000 1.0  -0.02
Li     1 -0.0127960000000  0.0624220000000 -0.2150490000000 1.0  -0.02
Li     1 -0.2627960000000 -0.2150490000000 -0.0624220000000 1.0  -0.02
Li     1  0.2372040000000  0.2150490000000  0.0624220000000 1.0  -0.02
O      2 -0.1243060000000  0.4409140000000 -0.2931530000000 1.0   0.07
O      2 -0.3452690000000  0.4855020000000 -0.0528270000000 1.0   0.06
O      2 -0.2216350000000  0.1818340000000 -0.1128360000000 1.0   0.01
O      2 -0.4310110000000  0.3214210000000 -0.3315140000000 1.0   0.06
O      2  0.3756940000000 -0.4409140000000  0.2931530000000 1.0   0.07
O      2  0.1547310000000 -0.4855020000000  0.0528270000000 1.0   0.06
O      2  0.2783650000000 -0.1818340000000  0.1128360000000 1.0   0.01
O      2  0.0689890000000 -0.3214210000000  0.3315140000000 1.0   0.06
O      2  0.1256940000000  0.2931530000000  0.4409140000000 1.0   0.07
O      2 -0.0952690000000  0.0528270000000  0.4855020000000 1.0   0.06
O      2  0.0283650000000  0.1128360000000  0.1818340000000 1.0   0.01
O      2 -0.1810110000000  0.3315140000000  0.3214210000000 1.0   0.06
O      2  0.6256940000000 -0.2931530000000 -0.4409140000000 1.0   0.07
O      2  0.4047310000000 -0.0528270000000 -0.4855020000000 1.0   0.06
O      2  0.5283650000000 -0.1128360000000 -0.1818340000000 1.0   0.01
O      2  0.3189890000000 -0.3315140000000 -0.3214210000000 1.0   0.06
F      3 -0.0495650000000 -0.1904030000000 -0.2026120000000 1.0   0.06
F      3  0.4504350000000  0.1904030000000  0.2026120000000 1.0   0.06
F      3  0.2004350000000  0.2026120000000 -0.1904030000000 1.0   0.06
F      3 -0.2995650000000 -0.2026120000000  0.1904030000000 1.0   0.06
S      4 -0.2819600000000  0.3512890000000 -0.1968370000000 1.0   0.02
S      4  0.2180400000000 -0.3512890000000  0.1968370000000 1.0   0.02
S      4 -0.0319600000000  0.1968370000000  0.3512890000000 1.0   0.02
S      4  0.4680400000000 -0.1968370000000 -0.3512890000000 1.0   0.02
Fe     5  0.3423480000000  0.2071830000000 -0.4298260000000 1.0   3.73
Fe     5 -0.1576520000000 -0.2071830000000  0.4298260000000 1.0   3.73
Fe     5 -0.4076520000000  0.4298260000000  0.2071830000000 1.0   3.73
Fe     5  0.0923480000000 -0.4298260000000 -0.2071830000000 1.0   3.73
END
