TITL 4LiFeSO4F-200817-225948-fb8672 0.0067 412.341698 -1.51299003E+004 16.0000 16.2498 32 (Cc) n - 1
REM
REM Run started: Tue, 18 Aug 2020 15:15:56 +0100 in /scratch/scratch/uccabz1/launch_tmp/launcher_2020-08-17-21-59-33-754541
REM CASTEP 19.11| from code version Version unavailable
REM Functional Perdew Burke Ernzerhof Relativity Koelling-Harmon Dispersion off
REM Cut-off 340.0000 eV Grid scale 1.7500 Gmax 16.5316 1/A FBSC none
REM MP grid 3 3 2 Offset 0.000 0.000 0.000 No. kpts 6 Spacing 0.07
REM Total runtime: 62814.1 s
REM Overall efficiency: 75 %
REM
REM 4LiFeSO4F.cell (79c870615ff1d88195b1fe3fe805288c)
REM
REM compiler GCC version 4.9.2
REM options -cpp -iprefix /scratch/UCL/applications/gcc/4.9.2/bin/../lib/gcc/x86_64-unknown-linux-gnu/4.9.2/ -mtune=corei7 -march=x86-64 -g -O2
REM COMMAND_LINE
REM seed -1150749466 1399465238 1453042403 -300752959 -616756471 -845541033 510860361 -1861904594 1960604914 1925296617 -1297806272 65590333
REM
REM S 3|1.8|5|6|7|30:31:32(qc=5)
REM O 2|1.5|12|13|15|20:21(qc=5)
REM Li 1|1.3|8|9|10|10U:20(qc=5)
REM Fe 3|2.2|2.0|1.0|8|9|10|40:41:32(qc=5)
REM F 2|1.6|10|12|13|20:21(qc=5)
REM 
CELL 1.54180    6.71401    6.99505   12.77179   72.65216   51.58846   61.32036
LATT -1
SFAC Li O  F  S  Fe 
Li     1  0.2646670000000 -0.1542080000000  0.3247910000000 1.0  -0.03
Li     1  0.1104590000000  0.1542080000000 -0.1752090000000 1.0  -0.03
Li     1  0.5959710000000 -0.4589520000000 -0.4186900000000 1.0  -0.03
Li     1  0.1370180000000  0.4589520000000  0.0813100000000 1.0  -0.03
O      2 -0.3551160000000  0.4442110000000 -0.2764130000000 1.0   0.04
O      2 -0.2062830000000  0.1597230000000 -0.1421800000000 1.0   0.00
O      2 -0.1730350000000  0.0553970000000 -0.3232560000000 1.0   0.06
O      2 -0.6271930000000  0.2296570000000 -0.1195120000000 1.0   0.05
O      2  0.0890950000000 -0.4442110000000  0.2235870000000 1.0   0.04
O      2 -0.0465600000000 -0.1597230000000  0.3578200000000 1.0   0.00
O      2 -0.1176380000000 -0.0553970000000  0.1767440000000 1.0   0.06
O      2 -0.3975360000000 -0.2296570000000  0.3804880000000 1.0   0.05
O      2  0.2117360000000  0.2593750000000  0.5665390000000 1.0   0.06
O      2  0.0972060000000  0.6508640000000  0.5628250000000 1.0   0.07
O      2  0.4239690000000  0.4526150000000  0.3515750000000 1.0   0.03
O      2  0.5549650000000  0.3776170000000  0.5089770000000 1.0   0.02
O      2 -0.5288900000000 -0.2593750000000  0.0665390000000 1.0   0.06
O      2 -0.2519300000000 -0.6508640000000  0.0628250000000 1.0   0.07
O      2 -0.1234160000000 -0.4526150000000 -0.1484250000000 1.0   0.03
O      2 -0.0674180000000 -0.3776170000000  0.0089770000000 1.0   0.02
F      3 -0.5546630000000 -0.1792640000000 -0.3719550000000 1.0   0.10
F      3  0.2660740000000  0.1792640000000  0.1280450000000 1.0   0.10
F      3  0.3284150000000 -0.1105670000000 -0.1301090000000 1.0   0.09
F      3  0.2178480000000  0.1105670000000  0.3698910000000 1.0   0.09
S      4 -0.3351990000000  0.2204720000000 -0.2138160000000 1.0   0.01
S      4 -0.1147260000000 -0.2204720000000  0.2861840000000 1.0   0.01
S      4  0.3320840000000  0.4290330000000  0.4952000000000 1.0   0.01
S      4 -0.2388830000000 -0.4290330000000 -0.0048000000000 1.0   0.01
Fe     5  0.2214600000000  0.0274500000000  0.0398010000000 1.0   3.77
Fe     5  0.2489090000000 -0.0274500000000 -0.4601990000000 1.0   3.77
Fe     5 -0.2901340000000 -0.2911020000000 -0.2683240000000 1.0   3.75
Fe     5 -0.5812360000000  0.2911020000000  0.2316760000000 1.0   3.75
END
