TITL 4LiFeSO4F-200818-145057-b3156d -0.0202 458.101819 -1.51296453E+004 16.0000 16.1528 32 (Pcc2) n - 1
REM
REM Run started: Tue, 18 Aug 2020 17:30:20 +0100 in /scratch/scratch/uccabz1/launch_tmp/launcher_2020-08-18-13-50-47-196615
REM CASTEP 19.11| from code version Version unavailable
REM Functional Perdew Burke Ernzerhof Relativity Koelling-Harmon Dispersion off
REM Cut-off 340.0000 eV Grid scale 1.7500 Gmax 16.5316 1/A FBSC none
REM MP grid 3 2 2 Offset 0.000 0.000 0.000 No. kpts 2 Spacing 0.07
REM Total runtime: 10760.1 s
REM Overall efficiency: 72.4167 %
REM
REM 4LiFeSO4F.cell (79c870615ff1d88195b1fe3fe805288c)
REM
REM compiler GCC version 4.9.2
REM options -cpp -iprefix /scratch/UCL/applications/gcc/4.9.2/bin/../lib/gcc/x86_64-unknown-linux-gnu/4.9.2/ -mtune=corei7 -march=x86-64 -g -O2
REM COMMAND_LINE
REM seed -1155515185 -1332740860 -944202205 1714417630 807914821 811509291 -1970324794 637992553 1173435183 1926551888 -1368813489 1769127744
REM
REM S 3|1.8|5|6|7|30:31:32(qc=5)
REM O 2|1.5|12|13|15|20:21(qc=5)
REM Li 1|1.3|8|9|10|10U:20(qc=5)
REM Fe 3|2.2|2.0|1.0|8|9|10|40:41:32(qc=5)
REM F 2|1.6|10|12|13|20:21(qc=5)
REM 
CELL 1.54180    6.07809    7.42121   10.15594   90.00000   90.00000   90.00000
LATT -1
SFAC Li O  F  S  Fe 
Li     1 -0.2361560000000  0.2639990000000  0.0085310000000 1.0  -0.01
Li     1  0.2361560000000  0.2639990000000 -0.0085310000000 1.0  -0.01
Li     1  0.2361560000000 -0.2360010000000  0.0085310000000 1.0  -0.01
Li     1 -0.2361560000000 -0.2360010000000 -0.0085310000000 1.0  -0.01
O      2  0.2513340000000 -0.2725920000000 -0.1959990000000 1.0   0.05
O      2  0.4855170000000 -0.4514400000000 -0.3466880000000 1.0   0.06
O      2  0.0896240000000 -0.4963080000000 -0.3483160000000 1.0   0.06
O      2  0.3105790000000 -0.5940750000000 -0.1549530000000 1.0   0.01
O      2 -0.2513340000000 -0.2725920000000  0.1959990000000 1.0   0.05
O      2 -0.4855170000000 -0.4514400000000  0.3466880000000 1.0   0.06
O      2 -0.0896240000000 -0.4963080000000  0.3483160000000 1.0   0.06
O      2 -0.3105790000000 -0.5940750000000  0.1549530000000 1.0   0.01
O      2 -0.2513340000000  0.2274080000000 -0.1959990000000 1.0   0.05
O      2 -0.4855170000000  0.0485600000000 -0.3466880000000 1.0   0.06
O      2 -0.0896240000000  0.0036920000000 -0.3483160000000 1.0   0.06
O      2 -0.3105790000000 -0.0940750000000 -0.1549530000000 1.0   0.01
O      2  0.2513340000000  0.2274080000000  0.1959990000000 1.0   0.05
O      2  0.4855170000000  0.0485600000000  0.3466880000000 1.0   0.06
O      2  0.0896240000000  0.0036920000000  0.3483160000000 1.0   0.06
O      2  0.3105790000000 -0.0940750000000  0.1549530000000 1.0   0.01
F      3 -0.1904020000000  0.0509150000000  0.0998220000000 1.0   0.08
F      3  0.1904020000000  0.0509150000000 -0.0998220000000 1.0   0.08
F      3  0.1904020000000 -0.4490850000000  0.0998220000000 1.0   0.08
F      3 -0.1904020000000 -0.4490850000000 -0.0998220000000 1.0   0.08
S      4  0.2841880000000 -0.4572620000000 -0.2581670000000 1.0   0.02
S      4 -0.2841880000000 -0.4572620000000  0.2581670000000 1.0   0.02
S      4 -0.2841880000000  0.0427380000000 -0.2581670000000 1.0   0.02
S      4  0.2841880000000  0.0427380000000  0.2581670000000 1.0   0.02
Fe     5  0.2186950000000  0.4726230000000  0.2901300000000 1.0   3.72
Fe     5 -0.2186950000000  0.4726230000000 -0.2901300000000 1.0   3.72
Fe     5 -0.2186950000000 -0.0273770000000  0.2901300000000 1.0   3.72
Fe     5  0.2186950000000 -0.0273770000000 -0.2901300000000 1.0   3.72
END
