TITL 4LiFeSO4F-200818-170353-db292d 0.0160 513.101526 -1.51302113E+004 16.0000 16.2794 32 (C2) n - 1
REM
REM Run started: Wed, 19 Aug 2020 00:15:47 +0100 in /scratch/scratch/uccabz1/launch_tmp/launcher_2020-08-18-17-53-46-273808
REM CASTEP 19.11| from code version Version unavailable
REM Functional Perdew Burke Ernzerhof Relativity Koelling-Harmon Dispersion off
REM Cut-off 340.0000 eV Grid scale 1.7500 Gmax 16.5316 1/A FBSC none
REM MP grid 2 2 2 Offset 0.000 0.000 0.000 No. kpts 3 Spacing 0.07
REM Total runtime: 19411 s
REM Overall efficiency: 70.3636 %
REM
REM
REM
REM compiler GCC version 4.9.2
REM options -cpp -iprefix /scratch/UCL/applications/gcc/4.9.2/bin/../lib/gcc/x86_64-unknown-linux-gnu/4.9.2/ -mtune=corei7 -march=x86-64 -g -O2
REM COMMAND_LINE
REM seed -1084147280 -968433616 -521921317 1590072457 1243358323 1310812720 -1231455421 109236070 49740623 1806708078 -1069527134 -82893024
REM
REM S 3|1.8|5|6|7|30:31:32(qc=5)
REM O 2|1.5|12|13|15|20:21(qc=5)
REM Li 1|1.3|8|9|10|10U:20(qc=5)
REM Fe 3|2.2|2.0|1.0|8|9|10|40:41:32(qc=5)
REM F 2|1.6|10|12|13|20:21(qc=5)
REM 
CELL 1.54180    8.06121    8.06121    9.68008  115.01308  115.01308   85.20263
LATT -1
SFAC Li O  F  S  Fe 
Li     1 -0.2494820000000  0.1340900000000  0.2200310000000 1.0  -0.01
Li     1 -0.1340900000000  0.2494820000000 -0.2200310000000 1.0  -0.01
Li     1  0.4652270000000  0.0004500000000 -0.3341850000000 1.0  -0.02
Li     1 -0.0004500000000 -0.4652270000000  0.3341850000000 1.0  -0.02
O      2 -0.0401750000000 -0.2434530000000 -0.0262540000000 1.0   0.06
O      2  0.0408140000000 -0.2643250000000  0.2374100000000 1.0   0.07
O      2 -0.2358830000000 -0.1208870000000  0.1299250000000 1.0   0.02
O      2  0.0611250000000  0.0444170000000  0.2378510000000 1.0   0.04
O      2  0.2434530000000  0.0401750000000  0.0262540000000 1.0   0.06
O      2  0.2643250000000 -0.0408140000000 -0.2374100000000 1.0   0.07
O      2  0.1208870000000  0.2358830000000 -0.1299250000000 1.0   0.02
O      2 -0.0444170000000 -0.0611250000000 -0.2378510000000 1.0   0.04
O      2 -0.4340110000000  0.2739380000000  0.3044070000000 1.0   0.04
O      2 -0.2865310000000  0.6002910000000  0.4806310000000 1.0   0.06
O      2 -0.5284490000000  0.5135930000000  0.1963170000000 1.0   0.07
O      2 -0.2299580000000  0.3894340000000  0.2355210000000 1.0   0.02
O      2 -0.2739380000000  0.4340110000000 -0.3044070000000 1.0   0.04
O      2 -0.6002910000000  0.2865310000000 -0.4806310000000 1.0   0.06
O      2 -0.5135930000000  0.5284490000000 -0.1963170000000 1.0   0.07
O      2 -0.3894340000000  0.2299580000000 -0.2355210000000 1.0   0.02
F      3  0.5792000000000 -0.1765830000000 -0.2573220000000 1.0   0.10
F      3  0.1765830000000 -0.5792000000000  0.2573220000000 1.0   0.10
F      3 -0.5853890000000 -0.1114140000000  0.4416320000000 1.0   0.13
F      3  0.1114140000000  0.5853890000000 -0.4416320000000 1.0   0.13
S      4 -0.0460070000000 -0.1452590000000  0.1428620000000 1.0   0.02
S      4  0.1452590000000  0.0460070000000 -0.1428620000000 1.0   0.02
S      4 -0.3702730000000  0.4470310000000  0.3060570000000 1.0   0.01
S      4 -0.4470310000000  0.3702730000000 -0.3060570000000 1.0   0.01
Fe     5  0.2955090000000  0.1809680000000  0.2688390000000 1.0   3.74
Fe     5 -0.1809680000000 -0.2955090000000 -0.2688390000000 1.0   3.74
Fe     5  0.3488100000000 -0.2925030000000 -0.2812460000000 1.0   3.67
Fe     5  0.2925030000000 -0.3488100000000  0.2812460000000 1.0   3.67
END
