TITL 4LiFeSO4F-200818-023012-7f8ef6 -0.2231 555.512790 -1.51299873E+004 16.0000 16.2505 32 (P21) n - 1
REM
REM Run started: Tue, 18 Aug 2020 09:52:43 +0100 in /scratch/scratch/uccabz1/launch_tmp/launcher_2020-08-18-01-30-09-832141
REM CASTEP 19.11| from code version Version unavailable
REM Functional Perdew Burke Ernzerhof Relativity Koelling-Harmon Dispersion off
REM Cut-off 340.0000 eV Grid scale 1.7500 Gmax 16.5316 1/A FBSC none
REM MP grid 3 2 1 Offset 0.000 0.000 0.000 No. kpts 3 Spacing 0.07
REM Total runtime: 30222.8 s
REM Overall efficiency: 74.0833 %
REM
REM 4LiFeSO4F.cell (79c870615ff1d88195b1fe3fe805288c)
REM
REM compiler GCC version 4.9.2
REM options -cpp -iprefix /scratch/UCL/applications/gcc/4.9.2/bin/../lib/gcc/x86_64-unknown-linux-gnu/4.9.2/ -mtune=corei7 -march=x86-64 -g -O2
REM COMMAND_LINE
REM seed 882903673 1794863352 1918378025 1149240311 2114754364 -2064731176 424586383 -1934310439 -179652956 -115388777 -72265873 1668312039
REM
REM S 3|1.8|5|6|7|30:31:32(qc=5)
REM O 2|1.5|12|13|15|20:21(qc=5)
REM Li 1|1.3|8|9|10|10U:20(qc=5)
REM Fe 3|2.2|2.0|1.0|8|9|10|40:41:32(qc=5)
REM F 2|1.6|10|12|13|20:21(qc=5)
REM 
CELL 1.54180    4.96747    7.56176   14.81591   90.00000   90.00000   86.53968
LATT -1
SFAC Li O  F  S  Fe 
Li     1 -0.0056440000000  0.3108210000000 -0.0481420000000 1.0  -0.01
Li     1  0.0056440000000 -0.3108210000000  0.4518580000000 1.0  -0.01
Li     1  0.1825590000000 -0.2655120000000  0.0728680000000 1.0  -0.01
Li     1 -0.1825590000000  0.2655120000000 -0.4271320000000 1.0  -0.01
O      2 -0.0940870000000 -0.2391700000000 -0.0731490000000 1.0   0.04
O      2 -0.2861660000000 -0.5283910000000 -0.0785160000000 1.0   0.01
O      2 -0.4709520000000 -0.2923940000000 -0.1809780000000 1.0   0.08
O      2 -0.5626290000000 -0.2650600000000 -0.0238580000000 1.0   0.04
O      2  0.0940870000000  0.2391700000000  0.4268510000000 1.0   0.04
O      2  0.2861660000000  0.5283910000000  0.4214840000000 1.0   0.01
O      2  0.4709520000000  0.2923940000000  0.3190220000000 1.0   0.08
O      2  0.5626290000000  0.2650600000000  0.4761420000000 1.0   0.04
O      2 -0.3947230000000  0.1574080000000  0.1276180000000 1.0   0.07
O      2 -0.0007700000000  0.1587250000000  0.2310640000000 1.0   0.09
O      2 -0.0233260000000 -0.0668010000000  0.1094410000000 1.0   0.02
O      2 -0.3129980000000 -0.0694110000000  0.2478940000000 1.0   0.05
O      2  0.3947230000000 -0.1574080000000 -0.3723820000000 1.0   0.07
O      2  0.0007700000000 -0.1587250000000 -0.2689360000000 1.0   0.09
O      2  0.0233260000000  0.0668010000000 -0.3905590000000 1.0   0.02
O      2  0.3129980000000  0.0694110000000 -0.2521060000000 1.0   0.05
F      3 -0.2123800000000  0.4879930000000 -0.3729880000000 1.0   0.11
F      3  0.2123800000000 -0.4879930000000  0.1270120000000 1.0   0.11
F      3  0.1844570000000  0.1128390000000 -0.0654920000000 1.0   0.10
F      3 -0.1844570000000 -0.1128390000000  0.4345080000000 1.0   0.10
S      4 -0.3463710000000 -0.3348240000000 -0.0870120000000 1.0   0.01
S      4  0.3463710000000  0.3348240000000  0.4129880000000 1.0   0.01
S      4 -0.1856610000000  0.0371310000000  0.1761280000000 1.0   0.01
S      4  0.1856610000000 -0.0371310000000 -0.3238720000000 1.0   0.01
Fe     5  0.1982530000000 -0.1014970000000 -0.1356280000000 1.0   3.72
Fe     5 -0.1982530000000  0.1014970000000  0.3643720000000 1.0   3.72
Fe     5 -0.3116510000000 -0.3004170000000 -0.3106090000000 1.0   3.68
Fe     5  0.3116510000000  0.3004170000000  0.1893910000000 1.0   3.68
END
