TITL 4LiFeSO4F-200804-090435-eab8e1 -0.0010 462.933782 -1.51303098E+004 16.0000 16.3039 32 (C222) n - 1
REM
REM Run started: Tue, 04 Aug 2020 12:25:01 +0100 in /lustre/scratch/uccabz1/launch_tmp/launcher_2020-08-04-08-04-33-093529
REM CASTEP 20.1 from code version af48c487+ pr-geom-scf-spinfix Tue Jun 2 15:39:59 2020 +0100
REM Functional Perdew Burke Ernzerhof Relativity Koelling-Harmon Dispersion off
REM Cut-off 340.0000 eV Grid scale 1.7500 Gmax 16.5316 1/A FBSC none
REM MP grid 3 2 2 Offset 0.000 0.000 0.000 No. kpts 4 Spacing 0.07
REM Total runtime: 12117.7 s
REM Overall efficiency: 75.875 %
REM
REM 4LiFeSO4F.cell (79c870615ff1d88195b1fe3fe805288c)
REM
REM compiler GCC version 4.9.2
REM options -cpp -iprefix /lustre/shared/ucl/apps/gcc/4.9.2/bin/../lib/gcc/x86_64-unknown-linux-gnu/4.9.2/ -mtune=corei7 -march=x86-64 -g -Og
REM COMMAND_LINE
REM seed 601881759 -253371357 383067471 278414222 646631156 211352821 -1107593455 -1279547396 788457181 1073560001 -845391883 938477378
REM
REM S 3|1.8|5|6|7|30:31:32(qc=5)
REM O 2|1.5|12|13|15|20:21(qc=5)
REM Li 1|1.3|8|9|10|10U:20(qc=5)
REM Fe 3|2.2|2.0|1.0|8|9|10|40:41:32(qc=5)
REM F 2|1.6|10|12|13|20:21(qc=5)
REM 
CELL 1.54180    6.21943    8.83222    8.83222   72.58769   90.00000   90.00000
LATT -1
SFAC Li O  F  S  Fe 
Li     1  0.2407370000000 -0.1665140000000  0.3497250000000 1.0  -0.00
Li     1  0.2407370000000  0.1665140000000 -0.3497250000000 1.0  -0.00
Li     1 -0.2407370000000  0.3497250000000 -0.1665140000000 1.0  -0.00
Li     1 -0.2407370000000 -0.3497250000000  0.1665140000000 1.0  -0.00
O      2 -0.2511750000000  0.1243410000000 -0.1606380000000 1.0   0.01
O      2 -0.0648690000000  0.1259970000000 -0.4104150000000 1.0   0.06
O      2 -0.4480950000000  0.1238380000000 -0.4068670000000 1.0   0.06
O      2 -0.2533400000000 -0.1164740000000 -0.2465170000000 1.0   0.07
O      2 -0.2511750000000 -0.1243410000000  0.1606380000000 1.0   0.01
O      2 -0.0648690000000 -0.1259970000000  0.4104150000000 1.0   0.06
O      2 -0.4480950000000 -0.1238380000000  0.4068670000000 1.0   0.06
O      2 -0.2533400000000  0.1164740000000  0.2465170000000 1.0   0.07
O      2  0.2511750000000 -0.1606380000000  0.1243410000000 1.0   0.01
O      2  0.0648690000000 -0.4104150000000  0.1259970000000 1.0   0.06
O      2  0.4480950000000 -0.4068670000000  0.1238380000000 1.0   0.06
O      2  0.2533400000000 -0.2465170000000 -0.1164740000000 1.0   0.07
O      2  0.2511750000000  0.1606380000000 -0.1243410000000 1.0   0.01
O      2  0.0648690000000  0.4104150000000 -0.1259970000000 1.0   0.06
O      2  0.4480950000000  0.4068670000000 -0.1238380000000 1.0   0.06
O      2  0.2533400000000  0.2465170000000  0.1164740000000 1.0   0.07
F      3  0.2483750000000  0.3418970000000  0.4660700000000 1.0   0.14
F      3  0.2483750000000 -0.3418970000000 -0.4660700000000 1.0   0.14
F      3 -0.2483750000000  0.4660700000000  0.3418970000000 1.0   0.14
F      3 -0.2483750000000 -0.4660700000000 -0.3418970000000 1.0   0.14
S      4 -0.2541920000000  0.0642850000000 -0.2982520000000 1.0   0.01
S      4 -0.2541920000000 -0.0642850000000  0.2982520000000 1.0   0.01
S      4  0.2541920000000 -0.2982520000000  0.0642850000000 1.0   0.01
S      4  0.2541920000000  0.2982520000000 -0.0642850000000 1.0   0.01
Fe     5 -0.2639620000000 -0.2499760000000  0.6106690000000 1.0   3.64
Fe     5 -0.2639620000000  0.2499760000000 -0.6106690000000 1.0   3.64
Fe     5  0.2639620000000  0.6106690000000 -0.2499760000000 1.0   3.64
Fe     5  0.2639620000000 -0.6106690000000  0.2499760000000 1.0   3.64
END
