TITL 4LiFeSO4F-200804-063458-86322d 0.0145 503.002596 -1.51287194E+004 16.0022 16.2377 32 (P-1) n - 1
REM
REM Run started: Tue, 04 Aug 2020 22:48:52 +0100 in /lustre/scratch/uccabz1/launch_tmp/launcher_2020-08-04-15-49-43-669354
REM CASTEP 20.1 from code version af48c487+ pr-geom-scf-spinfix Tue Jun 2 15:39:59 2020 +0100
REM Functional Perdew Burke Ernzerhof Relativity Koelling-Harmon Dispersion off
REM Cut-off 340.0000 eV Grid scale 1.7500 Gmax 16.5316 1/A FBSC none
REM MP grid 3 3 2 Offset 0.000 0.000 0.000 No. kpts 9 Spacing 0.07
REM Total runtime: 28818.2 s
REM Overall efficiency: 94.2857 %
REM
REM
REM
REM compiler GCC version 4.9.2
REM options -cpp -iprefix /lustre/shared/ucl/apps/gcc/4.9.2/bin/../lib/gcc/x86_64-unknown-linux-gnu/4.9.2/ -mtune=corei7 -march=x86-64 -g -Og
REM COMMAND_LINE
REM seed -94940436 -331343255 -1587310325 -830500967 1414934327 -1948761223 1486653533 -993569298 1861788699 638518619 851405612 961616962
REM
REM S 3|1.8|5|6|7|30:31:32(qc=5)
REM O 2|1.5|12|13|15|20:21(qc=5)
REM Li 1|1.3|8|9|10|10U:20(qc=5)
REM Fe 3|2.2|2.0|1.0|8|9|10|40:41:32(qc=5)
REM F 2|1.6|10|12|13|20:21(qc=5)
REM 
CELL 1.54180    7.67529    9.23180   11.14328  137.35683   70.30543  102.53315
LATT -1
SFAC Li O  F  S  Fe 
Li     1 -0.0611510000000 -0.4841710000000  0.2176580000000 1.0  -0.01
Li     1  0.0611510000000  0.4841710000000 -0.2176580000000 1.0  -0.01
Li     1 -0.5000000000000  0.0000000000000 -0.5000000000000 1.0   0.00
Li     1  0.0000000000000  0.0000000000000  0.0000000000000 1.0  -0.02
O      2 -0.1356170000000  0.1267970000000 -0.2201220000000 1.0   0.08
O      2 -0.2651240000000 -0.0141390000000 -0.4690000000000 1.0   0.01
O      2 -0.3729040000000 -0.1088170000000 -0.2970490000000 1.0   0.16
O      2 -0.0703120000000 -0.2530380000000 -0.5309420000000 1.0   0.01
O      2  0.1356170000000 -0.1267970000000  0.2201220000000 1.0   0.08
O      2  0.2651240000000  0.0141390000000  0.4690000000000 1.0   0.01
O      2  0.3729040000000  0.1088170000000  0.2970490000000 1.0   0.16
O      2  0.0703120000000  0.2530380000000  0.5309420000000 1.0   0.01
O      2 -0.2249480000000 -0.0259550000000  0.1262230000000 1.0   0.07
O      2 -0.1535340000000 -0.3918670000000 -0.0352950000000 1.0   0.03
O      2 -0.4500950000000 -0.3169530000000 -0.0251210000000 1.0   0.20
O      2  0.2249480000000  0.0259550000000 -0.1262230000000 1.0   0.07
O      2  0.1535340000000  0.3918670000000  0.0352950000000 1.0   0.03
O      2  0.4500950000000  0.3169530000000  0.0251210000000 1.0   0.20
O      2 -0.5000000000000  0.0000000000000  0.0000000000000 1.0   0.40
O      2  0.5000000000000  0.5000000000000  0.5000000000000 1.0   0.43
F      3  0.3876800000000 -0.2403240000000  0.4987400000000 1.0   0.21
F      3 -0.3876800000000  0.2403240000000 -0.4987400000000 1.0   0.21
F      3  0.2265760000000 -0.2872440000000 -0.1545070000000 1.0   0.07
F      3 -0.2265760000000  0.2872440000000  0.1545070000000 1.0   0.07
S      4 -0.2008670000000 -0.0649190000000 -0.3922390000000 1.0   0.00
S      4  0.2008670000000  0.0649190000000  0.3922390000000 1.0   0.00
S      4 -0.3091710000000 -0.2262450000000  0.0941170000000 1.0   0.02
S      4  0.3091710000000  0.2262450000000 -0.0941170000000 1.0   0.02
Fe     5  0.3812850000000 -0.2502700000000 -0.3410510000000 1.0   3.42
Fe     5 -0.3812850000000  0.2502700000000  0.3410510000000 1.0   3.42
Fe     5 -0.3656220000000  0.1504150000000 -0.0369380000000 1.0   3.32
Fe     5  0.3656220000000 -0.1504150000000  0.0369380000000 1.0   3.32
END
