TITL 4LiFeSO4F-200804-055134-7ec67c 0.0330 554.987618 -1.51302844E+004 16.0003 16.2332 32 (Pba2) n - 1
REM
REM Run started: Tue, 04 Aug 2020 08:23:30 +0100 in /lustre/scratch/uccabz1/launch_tmp/launcher_2020-08-04-04-51-31-991911
REM CASTEP 20.1 from code version af48c487+ pr-geom-scf-spinfix Tue Jun 2 15:39:59 2020 +0100
REM Functional Perdew Burke Ernzerhof Relativity Koelling-Harmon Dispersion off
REM Cut-off 340.0000 eV Grid scale 1.7500 Gmax 16.5316 1/A FBSC none
REM MP grid 3 2 2 Offset 0.000 0.000 0.000 No. kpts 2 Spacing 0.07
REM Total runtime: 9165.41 s
REM Overall efficiency: 73.8333 %
REM
REM 4LiFeSO4F.cell (79c870615ff1d88195b1fe3fe805288c)
REM
REM compiler GCC version 4.9.2
REM options -cpp -iprefix /lustre/shared/ucl/apps/gcc/4.9.2/bin/../lib/gcc/x86_64-unknown-linux-gnu/4.9.2/ -mtune=corei7 -march=x86-64 -g -Og
REM COMMAND_LINE
REM seed -869083190 -484857726 -2132037240 673438618 2129260335 -1472373203 -603410630 1651418135 1835726859 -2079093689 734852279 -459419157
REM
REM S 3|1.8|5|6|7|30:31:32(qc=5)
REM O 2|1.5|12|13|15|20:21(qc=5)
REM Li 1|1.3|8|9|10|10U:20(qc=5)
REM Fe 3|2.2|2.0|1.0|8|9|10|40:41:32(qc=5)
REM F 2|1.6|10|12|13|20:21(qc=5)
REM 
CELL 1.54180    5.88136    9.97597    9.45911   90.00000   90.00000   90.00000
LATT -1
SFAC Li O  F  S  Fe 
Li     1 -0.1691530000000  0.4140700000000 -0.2417780000000 1.0  -0.01
Li     1 -0.1691530000000 -0.4140700000000  0.2417780000000 1.0  -0.01
Li     1 -0.1691530000000 -0.0859300000000 -0.2582220000000 1.0  -0.01
Li     1 -0.1691530000000  0.0859300000000  0.2582220000000 1.0  -0.01
O      2  0.3688970000000 -0.1509630000000 -0.3793270000000 1.0   0.05
O      2  0.1530940000000 -0.1313880000000 -0.1544870000000 1.0   0.06
O      2  0.1916630000000  0.0632680000000 -0.2990390000000 1.0   0.04
O      2  0.5397520000000 -0.0298270000000 -0.1839510000000 1.0   0.01
O      2  0.3688970000000  0.1509630000000  0.3793270000000 1.0   0.05
O      2  0.1530940000000  0.1313880000000  0.1544870000000 1.0   0.06
O      2  0.1916630000000 -0.0632680000000  0.2990390000000 1.0   0.04
O      2  0.5397520000000  0.0298270000000  0.1839510000000 1.0   0.01
O      2  0.3688970000000  0.3490370000000 -0.1206730000000 1.0   0.05
O      2  0.1530940000000  0.3686120000000 -0.3455130000000 1.0   0.06
O      2  0.1916630000000  0.5632680000000 -0.2009610000000 1.0   0.04
O      2  0.5397520000000  0.4701730000000 -0.3160490000000 1.0   0.01
O      2  0.3688970000000 -0.3490370000000  0.1206730000000 1.0   0.05
O      2  0.1530940000000 -0.3686120000000  0.3455130000000 1.0   0.06
O      2  0.1916630000000 -0.5632680000000  0.2009610000000 1.0   0.04
O      2  0.5397520000000 -0.4701730000000  0.3160490000000 1.0   0.01
F      3 -0.1016090000000  0.1724790000000  0.4238030000000 1.0   0.11
F      3 -0.1016090000000 -0.1724790000000 -0.4238030000000 1.0   0.11
F      3 -0.1016090000000 -0.3275210000000  0.0761970000000 1.0   0.11
F      3 -0.1016090000000  0.3275210000000 -0.0761970000000 1.0   0.11
S      4  0.3217410000000 -0.0607730000000 -0.2547510000000 1.0   0.02
S      4  0.3217410000000  0.0607730000000  0.2547510000000 1.0   0.02
S      4  0.3217410000000  0.4392270000000 -0.2452490000000 1.0   0.02
S      4  0.3217410000000 -0.4392270000000  0.2452490000000 1.0   0.02
Fe     5  0.1615950000000 -0.2995120000000 -0.0397460000000 1.0   3.72
Fe     5  0.1615950000000  0.2995120000000  0.0397460000000 1.0   3.72
Fe     5  0.1615950000000  0.2004880000000 -0.4602540000000 1.0   3.72
Fe     5  0.1615950000000 -0.2004880000000  0.4602540000000 1.0   3.72
END
