TITL 4LiFeSO4F-200804-084026-41f1e3 0.0569 424.086669 -1.51292729E+004 16.0000 16.2704 32 (C2/c) n - 1
REM
REM Run started: Tue, 04 Aug 2020 18:36:32 +0100 in /lustre/scratch/uccabz1/launch_tmp/launcher_2020-08-04-15-26-28-074832
REM CASTEP 20.1 from code version af48c487+ pr-geom-scf-spinfix Tue Jun 2 15:39:59 2020 +0100
REM Functional Perdew Burke Ernzerhof Relativity Koelling-Harmon Dispersion off
REM Cut-off 340.0000 eV Grid scale 1.7500 Gmax 16.5316 1/A FBSC none
REM MP grid 4 2 2 Offset 0.000 0.000 0.000 No. kpts 6 Spacing 0.07
REM Total runtime: 10282.3 s
REM Overall efficiency: 76.5 %
REM
REM
REM
REM compiler GCC version 4.9.2
REM options -cpp -iprefix /lustre/shared/ucl/apps/gcc/4.9.2/bin/../lib/gcc/x86_64-unknown-linux-gnu/4.9.2/ -mtune=corei7 -march=x86-64 -g -Og
REM COMMAND_LINE
REM seed -1562155785 -1313762849 -300262523 1664718536 1637275547 -105014917 -989673288 -999582667 494402825 -2123056580 -1212290645 -1475734435
REM
REM S 3|1.8|5|6|7|30:31:32(qc=5)
REM O 2|1.5|12|13|15|20:21(qc=5)
REM Li 1|1.3|8|9|10|10U:20(qc=5)
REM Fe 3|2.2|2.0|1.0|8|9|10|40:41:32(qc=5)
REM F 2|1.6|10|12|13|20:21(qc=5)
REM 
CELL 1.54180    5.13174   10.18588   10.18588   81.23581   63.29581   63.29581
LATT -1
SFAC Li O  F  S  Fe 
Li     1 -0.6904970000000  0.3275480000000  0.1687120000000 1.0  -0.01
Li     1  0.1904970000000 -0.1687120000000 -0.3275480000000 1.0  -0.01
Li     1  0.6904970000000 -0.3275480000000 -0.1687120000000 1.0  -0.01
Li     1 -0.1904970000000  0.1687120000000  0.3275480000000 1.0  -0.01
O      2  0.1109370000000 -0.1575850000000  0.4852380000000 1.0   0.05
O      2 -0.0962210000000 -0.3415240000000  0.5998420000000 1.0   0.02
O      2 -0.1646790000000 -0.2240780000000  0.3764380000000 1.0   0.06
O      2 -0.4777420000000 -0.0857650000000  0.6173030000000 1.0   0.06
O      2  0.3890630000000 -0.4852380000000  0.1575850000000 1.0   0.05
O      2  0.5962210000000 -0.5998420000000  0.3415240000000 1.0   0.02
O      2  0.6646790000000 -0.3764380000000  0.2240780000000 1.0   0.06
O      2  0.9777420000000 -0.6173030000000  0.0857650000000 1.0   0.06
O      2 -0.1109370000000  0.1575850000000 -0.4852380000000 1.0   0.05
O      2  0.0962210000000  0.3415240000000 -0.5998420000000 1.0   0.02
O      2  0.1646790000000  0.2240780000000 -0.3764380000000 1.0   0.06
O      2  0.4777420000000  0.0857650000000 -0.6173030000000 1.0   0.06
O      2 -0.3890630000000  0.4852380000000 -0.1575850000000 1.0   0.05
O      2 -0.5962210000000  0.5998420000000 -0.3415240000000 1.0   0.02
O      2 -0.6646790000000  0.3764380000000 -0.2240780000000 1.0   0.06
O      2 -0.9777420000000  0.6173030000000 -0.0857650000000 1.0   0.06
F      3  0.2815260000000 -0.2221590000000 -0.0215040000000 1.0   0.13
F      3  0.2184740000000  0.0215040000000  0.2221590000000 1.0   0.13
F      3 -0.2815260000000  0.2221590000000  0.0215040000000 1.0   0.13
F      3 -0.2184740000000 -0.0215040000000 -0.2221590000000 1.0   0.13
S      4 -0.1495600000000 -0.2073790000000  0.5190280000000 1.0   0.01
S      4  0.6495600000000 -0.5190280000000  0.2073790000000 1.0   0.01
S      4  0.1495600000000  0.2073790000000 -0.5190280000000 1.0   0.01
S      4 -0.6495600000000  0.5190280000000 -0.2073790000000 1.0   0.01
Fe     5  0.5334220000000  0.1021480000000 -0.3197510000000 1.0   3.67
Fe     5 -0.0334220000000  0.3197510000000 -0.1021480000000 1.0   3.67
Fe     5 -0.5334220000000 -0.1021480000000  0.3197510000000 1.0   3.67
Fe     5  0.0334220000000 -0.3197510000000  0.1021480000000 1.0   3.67
END
