TITL 4LiFeSO4F-200804-100411-ae3c88 -0.0098 408.832785 -1.51314400E+004 16.0000 16.1377 32 (P21) n - 1
REM
REM Run started: Tue, 04 Aug 2020 16:30:34 +0100 in /lustre/scratch/uccabz1/launch_tmp/launcher_2020-08-04-09-04-07-706515
REM CASTEP 20.1 from code version af48c487+ pr-geom-scf-spinfix Tue Jun 2 15:39:59 2020 +0100
REM Functional Perdew Burke Ernzerhof Relativity Koelling-Harmon Dispersion off
REM Cut-off 340.0000 eV Grid scale 1.7500 Gmax 16.5316 1/A FBSC none
REM MP grid 2 2 3 Offset 0.000 0.000 0.000 No. kpts 3 Spacing 0.07
REM Total runtime: 25793.4 s
REM Overall efficiency: 74.2727 %
REM
REM 4LiFeSO4F.cell (79c870615ff1d88195b1fe3fe805288c)
REM
REM compiler GCC version 4.9.2
REM options -cpp -iprefix /lustre/shared/ucl/apps/gcc/4.9.2/bin/../lib/gcc/x86_64-unknown-linux-gnu/4.9.2/ -mtune=corei7 -march=x86-64 -g -Og
REM COMMAND_LINE
REM seed -278518652 1750408299 1975544971 953851272 -551269961 -1410538898 -1992972742 -2033029529 1580220341 1039862668 1146587415 -303213498
REM
REM S 3|1.8|5|6|7|30:31:32(qc=5)
REM O 2|1.5|12|13|15|20:21(qc=5)
REM Li 1|1.3|8|9|10|10U:20(qc=5)
REM Fe 3|2.2|2.0|1.0|8|9|10|40:41:32(qc=5)
REM F 2|1.6|10|12|13|20:21(qc=5)
REM 
CELL 1.54180    7.86584    7.75211    6.70590   90.00000   91.07603   90.00000
LATT -1
SFAC Li O  F  S  Fe 
Li     1  0.2933270000000  0.2665070000000 -0.3745110000000 1.0  -0.02
Li     1 -0.2933270000000 -0.2334930000000  0.3745110000000 1.0  -0.02
Li     1  0.5220300000000 -0.0327000000000  0.0334430000000 1.0  -0.01
Li     1 -0.5220300000000  0.4673000000000 -0.0334430000000 1.0  -0.01
O      2 -0.0147230000000 -0.4858310000000 -0.0330000000000 1.0   0.04
O      2  0.2627660000000 -0.5543240000000 -0.1822120000000 1.0   0.01
O      2  0.1225360000000 -0.2796090000000 -0.2601860000000 1.0   0.07
O      2  0.0076840000000 -0.5545310000000 -0.3909670000000 1.0   0.06
O      2  0.0147230000000  0.0141690000000  0.0330000000000 1.0   0.04
O      2 -0.2627660000000 -0.0543240000000  0.1822120000000 1.0   0.01
O      2 -0.1225360000000  0.2203910000000  0.2601860000000 1.0   0.07
O      2 -0.0076840000000 -0.0545310000000  0.3909670000000 1.0   0.06
O      2 -0.3741270000000 -0.5011090000000 -0.2694180000000 1.0   0.04
O      2 -0.4820350000000 -0.2580790000000 -0.0872850000000 1.0   0.01
O      2 -0.5161970000000 -0.2648400000000 -0.4580460000000 1.0   0.04
O      2 -0.2379390000000 -0.2174780000000 -0.3179930000000 1.0   0.03
O      2  0.3741270000000 -0.0011090000000  0.2694180000000 1.0   0.04
O      2  0.4820350000000  0.2419210000000  0.0872850000000 1.0   0.01
O      2  0.5161970000000  0.2351600000000  0.4580460000000 1.0   0.04
O      2  0.2379390000000  0.2825220000000  0.3179930000000 1.0   0.03
F      3  0.2285330000000  0.0460890000000 -0.3188910000000 1.0   0.09
F      3 -0.2285330000000 -0.4539110000000  0.3188910000000 1.0   0.09
F      3  0.1839030000000 -0.3552820000000  0.3002440000000 1.0   0.14
F      3 -0.1839030000000  0.1447180000000 -0.3002440000000 1.0   0.14
S      4  0.0931990000000 -0.4690010000000 -0.2112140000000 1.0   0.02
S      4 -0.0931990000000  0.0309990000000  0.2112140000000 1.0   0.02
S      4 -0.4029270000000 -0.3076070000000 -0.2799440000000 1.0   0.01
S      4  0.4029270000000  0.1923930000000  0.2799440000000 1.0   0.01
Fe     5 -0.2366790000000  0.3430730000000 -0.4772450000000 1.0   3.74
Fe     5  0.2366790000000 -0.1569270000000  0.4772450000000 1.0   3.74
Fe     5  0.0214650000000  0.4498030000000  0.2697850000000 1.0   3.72
Fe     5 -0.0214650000000 -0.0501970000000 -0.2697850000000 1.0   3.72
END
