TITL 4LiFeSO4F-200818-091632-9f20e5 -0.0646 419.585801 -1.51306661E+004 15.9998 16.2034 32 (Cc) n - 1
REM
REM Run started: Tue, 18 Aug 2020 19:24:49 +0100 in /lustre/scratch/uccabz1/launch_tmp/launcher_2020-08-18-08-16-24-399181
REM CASTEP 20.1 from code version af48c487+ pr-geom-scf-spinfix Tue Jun 2 15:39:59 2020 +0100
REM Functional Perdew Burke Ernzerhof Relativity Koelling-Harmon Dispersion off
REM Cut-off 340.0000 eV Grid scale 1.7500 Gmax 16.5316 1/A FBSC none
REM MP grid 3 2 2 Offset 0.000 0.000 0.000 No. kpts 5 Spacing 0.07
REM Total runtime: 36792.8 s
REM Overall efficiency: 71.3 %
REM
REM 4LiFeSO4F.cell (79c870615ff1d88195b1fe3fe805288c)
REM
REM compiler GCC version 4.9.2
REM options -cpp -iprefix /lustre/shared/ucl/apps/gcc/4.9.2/bin/../lib/gcc/x86_64-unknown-linux-gnu/4.9.2/ -mtune=corei7 -march=x86-64 -g -Og
REM COMMAND_LINE
REM seed -1465024547 -21000771 988029083 -1708641523 1190128440 -2013102228 1352473474 1292433773 326220263 997443983 19528432 -1271931241
REM
REM S 3|1.8|5|6|7|30:31:32(qc=5)
REM O 2|1.5|12|13|15|20:21(qc=5)
REM Li 1|1.3|8|9|10|10U:20(qc=5)
REM Fe 3|2.2|2.0|1.0|8|9|10|40:41:32(qc=5)
REM F 2|1.6|10|12|13|20:21(qc=5)
REM 
CELL 1.54180    7.47005    8.55872    8.55872   75.99397   61.12772   61.12772
LATT -1
SFAC Li O  F  S  Fe 
Li     1  0.1104040000000  0.2705520000000 -0.0846210000000 1.0  -0.02
Li     1 -0.3895960000000 -0.0846210000000  0.2705520000000 1.0  -0.02
Li     1 -0.1369580000000  0.1668280000000 -0.5019950000000 1.0  -0.01
Li     1  0.3630420000000 -0.5019950000000  0.1668280000000 1.0  -0.01
O      2 -0.9262770000000  0.5546360000000  0.1483680000000 1.0   0.01
O      2 -1.1159270000000  0.3870580000000  0.1469150000000 1.0   0.01
O      2 -1.3428000000000  0.6549420000000  0.3375430000000 1.0   0.06
O      2 -1.0768580000000  0.3887780000000  0.4192690000000 1.0   0.05
O      2 -0.4262770000000  0.1483680000000  0.5546360000000 1.0   0.01
O      2 -0.6159270000000  0.1469150000000  0.3870580000000 1.0   0.01
O      2 -0.8428000000000  0.3375430000000  0.6549420000000 1.0   0.06
O      2 -0.5768580000000  0.4192690000000  0.3887780000000 1.0   0.05
O      2  0.0160060000000 -0.2577270000000  0.4209560000000 1.0   0.05
O      2  0.3131370000000 -0.2500640000000  0.1206710000000 1.0   0.05
O      2  0.0862240000000  0.0097270000000  0.3082560000000 1.0   0.02
O      2 -0.0920220000000 -0.0746870000000  0.1819690000000 1.0   0.05
O      2 -0.4839940000000  0.4209560000000 -0.2577270000000 1.0   0.05
O      2 -0.1868630000000  0.1206710000000 -0.2500640000000 1.0   0.05
O      2 -0.4137760000000  0.3082560000000  0.0097270000000 1.0   0.02
O      2 -0.5920220000000  0.1819690000000 -0.0746870000000 1.0   0.05
F      3  0.1995650000000  0.0275740000000 -0.1200640000000 1.0   0.09
F      3 -0.3004350000000 -0.1200640000000  0.0275740000000 1.0   0.09
F      3  0.6861110000000 -0.2925540000000 -0.2304390000000 1.0   0.14
F      3  0.1861110000000 -0.2304390000000 -0.2925540000000 1.0   0.14
S      4 -1.1074030000000  0.4943550000000  0.2524650000000 1.0   0.00
S      4 -0.6074030000000  0.2524650000000  0.4943550000000 1.0   0.00
S      4  0.0762670000000 -0.1405230000000  0.2614580000000 1.0   0.01
S      4 -0.4237330000000  0.2614580000000 -0.1405230000000 1.0   0.01
Fe     5 -0.5802620000000 -0.4251650000000  0.5423210000000 1.0   3.67
Fe     5 -0.0802620000000  0.5423210000000 -0.4251650000000 1.0   3.67
Fe     5  0.4781650000000 -0.0925560000000 -0.0632360000000 1.0   3.83
Fe     5 -0.0218350000000 -0.0632360000000 -0.0925560000000 1.0   3.83
END
