TITL 4LiFeSO4F-200818-020623-8578a8 0.0477 446.806963 -1.51306607E+004 16.0000 16.2536 32 (Pc) n - 1
REM
REM Run started: Tue, 18 Aug 2020 10:52:23 +0100 in /scratch/scratch/uccabz1/launch_tmp/launcher_2020-08-18-05-14-50-786524
REM CASTEP 19.11| from code version Version unavailable
REM Functional Perdew Burke Ernzerhof Relativity Koelling-Harmon Dispersion off
REM Cut-off 340.0000 eV Grid scale 1.7500 Gmax 16.5316 1/A FBSC none
REM MP grid 4 2 2 Offset 0.000 0.000 0.000 No. kpts 4 Spacing 0.07
REM Total runtime: 18491.1 s
REM Overall efficiency: 76.6 %
REM
REM
REM
REM compiler GCC version 4.9.2
REM options -cpp -iprefix /lustre/shared/ucl/apps/gcc/4.9.2/bin/../lib/gcc/x86_64-unknown-linux-gnu/4.9.2/ -mtune=corei7 -march=x86-64 -g -Og
REM COMMAND_LINE
REM seed -2104575498 -1409195274 2068018269 -1916232663 -1616704633 698293207 1383715180 771345390 -1218952780 296498627 -1962794294 2090657486
REM
REM S 3|1.8|5|6|7|30:31:32(qc=5)
REM O 2|1.5|12|13|15|20:21(qc=5)
REM Li 1|1.3|8|9|10|10U:20(qc=5)
REM Fe 3|2.2|2.0|1.0|8|9|10|40:41:32(qc=5)
REM F 2|1.6|10|12|13|20:21(qc=5)
REM 
CELL 1.54180    4.54021    7.39710   13.60476   90.00000   90.00000  102.06944
LATT -1
SFAC Li O  F  S  Fe 
Li     1  0.6000260000000 -0.2920140000000 -0.1034250000000 1.0  -0.03
Li     1  0.6000260000000  0.2079860000000  0.1034250000000 1.0  -0.03
Li     1  0.5275780000000 -0.1626940000000  0.4638380000000 1.0  -0.01
Li     1  0.5275780000000  0.3373060000000 -0.4638380000000 1.0  -0.01
O      2  0.1570780000000  0.2086460000000 -0.3684920000000 1.0   0.04
O      2 -0.0444560000000 -0.1280470000000 -0.3590670000000 1.0   0.07
O      2 -0.3098120000000  0.0666190000000 -0.4555540000000 1.0   0.01
O      2 -0.3063420000000  0.0862910000000 -0.2738510000000 1.0   0.05
O      2  0.1570780000000 -0.2913540000000  0.3684920000000 1.0   0.04
O      2 -0.0444560000000 -0.6280470000000  0.3590670000000 1.0   0.07
O      2 -0.3098120000000 -0.4333810000000  0.4555540000000 1.0   0.01
O      2 -0.3063420000000 -0.4137090000000  0.2738510000000 1.0   0.05
O      2  0.1656010000000 -0.2300330000000  0.1396680000000 1.0   0.09
O      2 -0.1788270000000 -0.1928190000000  0.0065670000000 1.0   0.02
O      2  0.2611700000000  0.0559080000000  0.0405020000000 1.0   0.01
O      2 -0.1714190000000 -0.0109070000000  0.1572590000000 1.0   0.09
O      2  0.1656010000000  0.2699670000000 -0.1396680000000 1.0   0.09
O      2 -0.1788270000000  0.3071810000000 -0.0065670000000 1.0   0.02
O      2  0.2611700000000  0.5559080000000 -0.0405020000000 1.0   0.01
O      2 -0.1714190000000  0.4890930000000 -0.1572590000000 1.0   0.09
F      3  0.3968970000000  0.1936620000000  0.2313810000000 1.0   0.12
F      3  0.3968970000000 -0.3063380000000 -0.2313810000000 1.0   0.12
F      3 -0.3105290000000  0.4579370000000 -0.3476310000000 1.0   0.10
F      3 -0.3105290000000 -0.0420630000000  0.3476310000000 1.0   0.10
S      4 -0.1284110000000  0.0602270000000 -0.3635850000000 1.0   0.02
S      4 -0.1284110000000 -0.4397730000000  0.3635850000000 1.0   0.02
S      4  0.0272960000000 -0.0935670000000  0.0804560000000 1.0   0.01
S      4  0.0272960000000  0.4064330000000 -0.0804560000000 1.0   0.01
Fe     5 -0.0025760000000  0.1565440000000  0.2800970000000 1.0   3.68
Fe     5 -0.0025760000000 -0.3434560000000 -0.2800970000000 1.0   3.68
Fe     5  0.4736370000000  0.2954510000000 -0.2380820000000 1.0   3.74
Fe     5  0.4736370000000 -0.2045490000000  0.2380820000000 1.0   3.74
END
