TITL 4LiFeSO4F-200818-163739-f77d5e 0.0779 515.141520 -1.51298842E+004 16.0000 16.4077 32 (P21212) n - 1
REM
REM Run started: Tue, 18 Aug 2020 21:52:41 +0100 in /lustre/scratch/uccabz1/launch_tmp/launcher_2020-08-18-15-37-33-176164
REM CASTEP 20.1 from code version af48c487+ pr-geom-scf-spinfix Tue Jun 2 15:39:59 2020 +0100
REM Functional Perdew Burke Ernzerhof Relativity Koelling-Harmon Dispersion off
REM Cut-off 340.0000 eV Grid scale 1.7500 Gmax 16.5316 1/A FBSC none
REM MP grid 3 3 1 Offset 0.000 0.000 0.000 No. kpts 4 Spacing 0.07
REM Total runtime: 19218.1 s
REM Overall efficiency: 77.3636 %
REM
REM 4LiFeSO4F.cell (79c870615ff1d88195b1fe3fe805288c)
REM
REM compiler GCC version 4.9.2
REM options -cpp -iprefix /lustre/shared/ucl/apps/gcc/4.9.2/bin/../lib/gcc/x86_64-unknown-linux-gnu/4.9.2/ -mtune=corei7 -march=x86-64 -g -Og
REM COMMAND_LINE
REM seed 929621118 -2037726330 1257580680 2011279396 1562046963 -29114183 458907178 -1502320536 -1417323138 -1972626119 -189863108 68044019
REM
REM S 3|1.8|5|6|7|30:31:32(qc=5)
REM O 2|1.5|12|13|15|20:21(qc=5)
REM Li 1|1.3|8|9|10|10U:20(qc=5)
REM Fe 3|2.2|2.0|1.0|8|9|10|40:41:32(qc=5)
REM F 2|1.6|10|12|13|20:21(qc=5)
REM 
CELL 1.54180    4.96957    6.91713   14.98587   90.00000   90.00000   90.00000
LATT -1
SFAC Li O  F  S  Fe 
Li     1 -0.3067350000000 -0.2622590000000 -0.4536770000000 1.0   0.00
Li     1 -0.3067350000000  0.2622590000000  0.4536770000000 1.0   0.00
Li     1  0.3067350000000  0.2377410000000 -0.0463230000000 1.0   0.00
Li     1  0.3067350000000 -0.2377410000000  0.0463230000000 1.0   0.00
O      2  0.5047730000000  0.0536690000000  0.4002970000000 1.0   0.01
O      2  0.5657770000000 -0.1791560000000  0.2775300000000 1.0   0.11
O      2  0.1368340000000 -0.1601030000000  0.3536640000000 1.0   0.10
O      2  0.5262910000000 -0.2971850000000  0.4326600000000 1.0   0.02
O      2  0.5047730000000 -0.0536690000000 -0.4002970000000 1.0   0.01
O      2  0.5657770000000  0.1791560000000 -0.2775300000000 1.0   0.11
O      2  0.1368340000000  0.1601030000000 -0.3536640000000 1.0   0.10
O      2  0.5262910000000  0.2971850000000 -0.4326600000000 1.0   0.02
O      2 -0.5047730000000  0.5536690000000  0.0997030000000 1.0   0.01
O      2 -0.5657770000000  0.3208440000000  0.2224700000000 1.0   0.11
O      2 -0.1368340000000  0.3398970000000  0.1463360000000 1.0   0.10
O      2 -0.5262910000000  0.2028150000000  0.0673400000000 1.0   0.02
O      2 -0.5047730000000 -0.5536690000000 -0.0997030000000 1.0   0.01
O      2 -0.5657770000000 -0.3208440000000 -0.2224700000000 1.0   0.11
O      2 -0.1368340000000 -0.3398970000000 -0.1463360000000 1.0   0.10
O      2 -0.5262910000000 -0.2028150000000 -0.0673400000000 1.0   0.02
F      3  0.0542350000000 -0.1539380000000  0.1280270000000 1.0   0.13
F      3  0.0542350000000  0.1539380000000 -0.1280270000000 1.0   0.13
F      3 -0.0542350000000  0.3460620000000  0.3719730000000 1.0   0.13
F      3 -0.0542350000000 -0.3460620000000 -0.3719730000000 1.0   0.13
S      4  0.4403540000000 -0.1435590000000  0.3701710000000 1.0   0.01
S      4  0.4403540000000  0.1435590000000 -0.3701710000000 1.0   0.01
S      4 -0.4403540000000  0.3564410000000  0.1298290000000 1.0   0.01
S      4 -0.4403540000000 -0.3564410000000 -0.1298290000000 1.0   0.01
Fe     5 -0.0657680000000  0.1627320000000 -0.2441110000000 1.0   3.61
Fe     5 -0.0657680000000 -0.1627320000000  0.2441110000000 1.0   3.61
Fe     5  0.0657680000000 -0.3372680000000 -0.2558890000000 1.0   3.61
Fe     5  0.0657680000000  0.3372680000000  0.2558890000000 1.0   3.61
END
