TITL 4LiFeSO4F-200818-051044-b204f8 -0.0484 509.007276 -1.51282921E+004 16.0000 16.4886 32 (I-4) n - 1
REM
REM Run started: Tue, 18 Aug 2020 12:13:56 +0100 in /lustre/scratch/uccabz1/launch_tmp/launcher_2020-08-18-08-01-38-881908
REM CASTEP 20.1 from code version af48c487+ pr-geom-scf-spinfix Tue Jun 2 15:39:59 2020 +0100
REM Functional Perdew Burke Ernzerhof Relativity Koelling-Harmon Dispersion off
REM Cut-off 340.0000 eV Grid scale 1.7500 Gmax 16.5316 1/A FBSC none
REM MP grid 3 2 2 Offset 0.000 0.000 0.000 No. kpts 6 Spacing 0.07
REM Total runtime: 11817.6 s
REM Overall efficiency: 68.4286 %
REM
REM
REM
REM compiler GCC version 4.9.2
REM options -cpp -iprefix /lustre/shared/ucl/apps/gcc/4.9.2/bin/../lib/gcc/x86_64-unknown-linux-gnu/4.9.2/ -mtune=corei7 -march=x86-64 -g -Og
REM COMMAND_LINE
REM seed 1769205106 -1931501554 1821450260 -512446165 -996024971 2039813532 -639319357 -1429117257 1289595070 944791913 372566154 -1778411366
REM
REM S 3|1.8|5|6|7|30:31:32(qc=5)
REM O 2|1.5|12|13|15|20:21(qc=5)
REM Li 1|1.3|8|9|10|10U:20(qc=5)
REM Fe 3|2.2|2.0|1.0|8|9|10|40:41:32(qc=5)
REM F 2|1.6|10|12|13|20:21(qc=5)
REM 
CELL 1.54180    9.38882    9.38882    9.38882   77.93891  127.19123  127.19123
LATT -1
SFAC Li O  F  S  Fe 
Li     1  0.4686850000000  0.5805030000000 -0.2002700000000 1.0  -0.02
Li     1 -0.4686840000000  0.3310450000000  0.1118190000000 1.0  -0.02
Li     1  0.2192270000000 -0.1118190000000 -0.5805030000000 1.0  -0.02
Li     1 -0.2192260000000  0.2002700000000 -0.3310450000000 1.0  -0.02
O      2  0.2842040000000 -0.3968400000000  0.5555480000000 1.0   0.01
O      2  0.2613510000000 -0.2366920000000  0.3082030000000 1.0   0.07
O      2 -0.0050390000000 -0.5623180000000  0.2100110000000 1.0   0.09
O      2  0.3933740000000 -0.4306850000000  0.3949380000000 1.0   0.07
O      2 -0.2842030000000  0.2713440000000  0.3189570000000 1.0   0.01
O      2 -0.2613500000000  0.0468520000000  0.5019580000000 1.0   0.07
O      2  0.0050400000000  0.2150500000000  0.4427220000000 1.0   0.09
O      2 -0.3933730000000  0.0015640000000  0.1759420000000 1.0   0.07
O      2 -0.0476120000000 -0.3189570000000  0.3968400000000 1.0   0.01
O      2 -0.4551050000000 -0.5019580000000  0.2366920000000 1.0   0.07
O      2 -0.2276710000000 -0.4427220000000  0.5623180000000 1.0   0.09
O      2 -0.1743770000000 -0.1759420000000  0.4306850000000 1.0   0.07
O      2  0.0476130000000 -0.5555480000000 -0.2713440000000 1.0   0.01
O      2  0.4551060000000 -0.3082030000000 -0.0468520000000 1.0   0.07
O      2  0.2276720000000 -0.2100110000000 -0.2150500000000 1.0   0.09
O      2  0.1743780000000 -0.3949380000000 -0.0015640000000 1.0   0.07
F      3 -0.2777060000000 -0.4166670000000 -0.0815170000000 1.0   0.10
F      3  0.2777070000000  0.1961900000000 -0.1389600000000 1.0   0.10
F      3  0.3351510000000  0.1389600000000  0.4166670000000 1.0   0.10
F      3 -0.3351500000000  0.0815170000000 -0.1961900000000 1.0   0.10
S      4  0.2339570000000 -0.4098070000000  0.3744380000000 1.0   0.00
S      4 -0.2339560000000  0.1404810000000  0.3562370000000 1.0   0.00
S      4 -0.2157550000000 -0.3562370000000  0.4098070000000 1.0   0.00
S      4  0.2157560000000 -0.3744380000000 -0.1404810000000 1.0   0.00
Fe     5 -0.4198490000000 -0.0232160000000 -0.0406030000000 1.0   3.67
Fe     5  0.4198500000000  0.3792460000000  0.3966330000000 1.0   3.67
Fe     5 -0.0173870000000 -0.3966330000000  0.0232160000000 1.0   3.67
Fe     5  0.0173880000000  0.0406030000000 -0.3792460000000 1.0   3.67
END
