TITL 4LiFeSO4F-200804-101710-cc711c 0.0648 477.088858 -1.51305112E+004 16.0000 16.2355 32 (Cc) n - 1
REM
REM Run started: Wed, 05 Aug 2020 06:43:47 +0100 in /lustre/scratch/uccabz1/launch_tmp/launcher_2020-08-04-15-13-06-183200
REM CASTEP 20.1 from code version af48c487+ pr-geom-scf-spinfix Tue Jun 2 15:39:59 2020 +0100
REM Functional Perdew Burke Ernzerhof Relativity Koelling-Harmon Dispersion off
REM Cut-off 340.0000 eV Grid scale 1.7500 Gmax 16.5316 1/A FBSC none
REM MP grid 3 3 2 Offset 0.000 0.000 0.000 No. kpts 9 Spacing 0.07
REM Total runtime: 59300.3 s
REM Overall efficiency: 97.7 %
REM
REM
REM
REM compiler GCC version 4.9.2
REM options -cpp -iprefix /lustre/shared/ucl/apps/gcc/4.9.2/bin/../lib/gcc/x86_64-unknown-linux-gnu/4.9.2/ -mtune=corei7 -march=x86-64 -g -Og
REM COMMAND_LINE
REM seed 305785331 1477477536 -807044113 -917937229 -1637855572 -1524985669 348144636 -756768791 1150102809 -1329153973 -1777912285 1845997972
REM
REM S 3|1.8|5|6|7|30:31:32(qc=5)
REM O 2|1.5|12|13|15|20:21(qc=5)
REM Li 1|1.3|8|9|10|10U:20(qc=5)
REM Fe 3|2.2|2.0|1.0|8|9|10|40:41:32(qc=5)
REM F 2|1.6|10|12|13|20:21(qc=5)
REM 
CELL 1.54180    8.05134    8.05134   10.38139   83.81911  114.26401  127.51427
LATT -1
SFAC Li O  F  S  Fe 
Li     1 -0.2128640000000 -0.5785180000000  0.0491800000000 1.0  -0.01
Li     1  0.6276980000000  0.7620440000000 -0.4508200000000 1.0  -0.01
Li     1  0.1782670000000  0.0988450000000 -0.2670010000000 1.0  -0.01
Li     1 -0.3658460000000  0.0547320000000  0.2329990000000 1.0  -0.01
O      2  0.2632830000000 -0.1116160000000 -0.2305060000000 1.0   0.06
O      2  0.4115930000000 -0.2755500000000 -0.0604450000000 1.0   0.05
O      2  0.5596800000000  0.0878770000000  0.0225030000000 1.0   0.01
O      2  0.6593520000000  0.0318260000000 -0.1562110000000 1.0   0.09
O      2 -0.1188900000000  0.0062110000000  0.2694940000000 1.0   0.06
O      2  0.2151050000000  0.0279620000000  0.4395550000000 1.0   0.05
O      2 -0.0653740000000 -0.0371770000000  0.5225030000000 1.0   0.01
O      2 -0.1880370000000 -0.3155630000000  0.3437890000000 1.0   0.09
O      2 -0.2616050000000  0.3937000000000 -0.3867580000000 1.0   0.06
O      2 -0.2517720000000  0.6668230000000 -0.2826180000000 1.0   0.01
O      2 -0.1060600000000  0.4878390000000 -0.1234030000000 1.0   0.05
O      2 -0.5229880000000  0.2819560000000 -0.2803250000000 1.0   0.04
O      2  0.2195420000000 -0.6251530000000  0.1132420000000 1.0   0.06
O      2  0.0505590000000 -0.5308460000000  0.2173820000000 1.0   0.01
O      2  0.3887580000000 -0.5173420000000  0.3765970000000 1.0   0.05
O      2  0.4377190000000 -0.2573370000000  0.2196750000000 1.0   0.04
F      3 -0.3922020000000  0.2133880000000  0.3180890000000 1.0   0.12
F      3  0.1047010000000  0.2102920000000 -0.1819110000000 1.0   0.12
F      3 -0.3101000000000 -0.4280150000000  0.0415920000000 1.0   0.13
F      3  0.4696070000000 -0.1483080000000 -0.4584080000000 1.0   0.13
S      4  0.4726320000000 -0.0670820000000 -0.1007810000000 1.0   0.02
S      4 -0.0337000000000 -0.0734140000000  0.3992190000000 1.0   0.02
S      4 -0.2849240000000  0.4661630000000 -0.2690220000000 1.0   0.01
S      4  0.2648150000000 -0.4840980000000  0.2309780000000 1.0   0.01
Fe     5 -0.3872840000000 -0.3050160000000  0.1245170000000 1.0   3.70
Fe     5  0.4295330000000  0.0118010000000 -0.3754830000000 1.0   3.70
Fe     5 -0.0045270000000  0.3053280000000 -0.1077690000000 1.0   3.68
Fe     5 -0.4130970000000 -0.6032420000000  0.3922310000000 1.0   3.68
END
