TITL 4LiFeSO4F-200804-055802-851fcf -0.0322 397.037830 -1.51310095E+004 -16.0000 16.1835 32 (P-1) n - 1
REM
REM Run started: Wed, 05 Aug 2020 00:59:23 +0100 in /lustre/scratch/uccabz1/launch_tmp/launcher_2020-08-04-04-57-54-946242
REM CASTEP 20.1 from code version af48c487+ pr-geom-scf-spinfix Tue Jun 2 15:39:59 2020 +0100
REM Functional Perdew Burke Ernzerhof Relativity Koelling-Harmon Dispersion off
REM Cut-off 340.0000 eV Grid scale 1.7500 Gmax 16.5316 1/A FBSC none
REM MP grid 3 3 2 Offset 0.000 0.000 0.000 No. kpts 9 Spacing 0.07
REM Total runtime: 75383.2 s
REM Overall efficiency: 88.5 %
REM
REM 4LiFeSO4F.cell (79c870615ff1d88195b1fe3fe805288c)
REM
REM compiler GCC version 4.9.2
REM options -cpp -iprefix /lustre/shared/ucl/apps/gcc/4.9.2/bin/../lib/gcc/x86_64-unknown-linux-gnu/4.9.2/ -mtune=corei7 -march=x86-64 -g -Og
REM COMMAND_LINE
REM seed -821095013 1290060650 1158471667 -2074370253 1338216040 -588743901 993061648 2095510514 1789645594 -774249610 733170038 1256038127
REM
REM S 3|1.8|5|6|7|30:31:32(qc=5)
REM O 2|1.5|12|13|15|20:21(qc=5)
REM Li 1|1.3|8|9|10|10U:20(qc=5)
REM Fe 3|2.2|2.0|1.0|8|9|10|40:41:32(qc=5)
REM F 2|1.6|10|12|13|20:21(qc=5)
REM 
CELL 1.54180    6.20256    6.42755   10.37276   78.86295   92.99281   79.30933
LATT -1
SFAC Li O  F  S  Fe 
Li     1  0.4015700000000 -0.2680650000000 -0.2879920000000 1.0   0.03
Li     1 -0.4015700000000  0.2680650000000  0.2879920000000 1.0   0.03
Li     1 -0.6737690000000  0.1505960000000  0.0406920000000 1.0   0.02
Li     1  0.6737690000000 -0.1505960000000 -0.0406920000000 1.0   0.02
O      2 -0.3403910000000 -0.2886190000000  0.3970450000000 1.0  -0.07
O      2 -0.2773190000000  0.0466160000000  0.4569570000000 1.0  -0.04
O      2 -0.0022580000000 -0.1649190000000  0.3421160000000 1.0  -0.07
O      2 -0.0475640000000 -0.3065420000000  0.5724690000000 1.0  -0.05
O      2  0.3403910000000  0.2886190000000 -0.3970450000000 1.0  -0.07
O      2  0.2773190000000 -0.0466160000000 -0.4569570000000 1.0  -0.04
O      2  0.0022580000000  0.1649190000000 -0.3421160000000 1.0  -0.07
O      2  0.0475640000000  0.3065420000000 -0.5724690000000 1.0  -0.05
O      2 -0.0180960000000 -0.2162560000000  0.0249930000000 1.0  -0.01
O      2  0.2878190000000 -0.5224460000000  0.0666290000000 1.0  -0.05
O      2  0.3579870000000 -0.1542610000000 -0.0126230000000 1.0  -0.01
O      2  0.1683490000000 -0.3293860000000 -0.1633750000000 1.0  -0.06
O      2  0.0180960000000  0.2162560000000 -0.0249930000000 1.0  -0.01
O      2 -0.2878190000000  0.5224460000000 -0.0666290000000 1.0  -0.05
O      2 -0.3579870000000  0.1542610000000  0.0126230000000 1.0  -0.01
O      2 -0.1683490000000  0.3293860000000  0.1633750000000 1.0  -0.06
F      3  0.3518840000000  0.0999160000000  0.2450560000000 1.0  -0.10
F      3 -0.3518840000000 -0.0999160000000 -0.2450560000000 1.0  -0.10
F      3 -0.6280680000000  0.5046350000000  0.3169080000000 1.0  -0.10
F      3  0.6280680000000 -0.5046350000000 -0.3169080000000 1.0  -0.10
S      4 -0.1659310000000 -0.1798130000000  0.4444590000000 1.0  -0.02
S      4  0.1659310000000  0.1798130000000 -0.4444590000000 1.0  -0.02
S      4  0.1980350000000 -0.2999660000000 -0.0185760000000 1.0  -0.01
S      4 -0.1980350000000  0.2999660000000  0.0185760000000 1.0  -0.01
Fe     5 -0.8785360000000  0.3923730000000  0.2369850000000 1.0  -3.75
Fe     5  0.8785360000000 -0.3923730000000 -0.2369850000000 1.0  -3.75
Fe     5 -0.3298250000000  0.1948970000000 -0.3741390000000 1.0  -3.72
Fe     5  0.3298250000000 -0.1948970000000  0.3741390000000 1.0  -3.72
END
