TITL 4LiFeSO4F-200804-092633-63e162 0.0625 456.295113 -1.51312030E+004 16.0000 16.2771 32 (P21) n - 1
REM
REM Run started: Tue, 04 Aug 2020 17:10:23 +0100 in /lustre/scratch/uccabz1/launch_tmp/launcher_2020-08-04-08-26-30-960572
REM CASTEP 20.1 from code version af48c487+ pr-geom-scf-spinfix Tue Jun 2 15:39:59 2020 +0100
REM Functional Perdew Burke Ernzerhof Relativity Koelling-Harmon Dispersion off
REM Cut-off 340.0000 eV Grid scale 1.7500 Gmax 16.5316 1/A FBSC none
REM MP grid 3 2 2 Offset 0.000 0.000 0.000 No. kpts 4 Spacing 0.07
REM Total runtime: 30680.9 s
REM Overall efficiency: 76.4167 %
REM
REM 4LiFeSO4F.cell (79c870615ff1d88195b1fe3fe805288c)
REM
REM compiler GCC version 4.9.2
REM options -cpp -iprefix /lustre/shared/ucl/apps/gcc/4.9.2/bin/../lib/gcc/x86_64-unknown-linux-gnu/4.9.2/ -mtune=corei7 -march=x86-64 -g -Og
REM COMMAND_LINE
REM seed 1879928798 42812928 1995619156 1679163545 1247228607 -97580211 -1235348834 2090429259 480691592 1619506615 246606907 686442864
REM
REM S 3|1.8|5|6|7|30:31:32(qc=5)
REM O 2|1.5|12|13|15|20:21(qc=5)
REM Li 1|1.3|8|9|10|10U:20(qc=5)
REM Fe 3|2.2|2.0|1.0|8|9|10|40:41:32(qc=5)
REM F 2|1.6|10|12|13|20:21(qc=5)
REM 
CELL 1.54180    5.55245    9.59668    8.57544   86.94729   90.00000   90.00000
LATT -1
SFAC Li O  F  S  Fe 
Li     1 -0.5507020000000  0.4081430000000 -0.4261450000000 1.0  -0.02
Li     1 -0.0507020000000 -0.4081430000000  0.4261450000000 1.0  -0.02
Li     1 -0.2508700000000 -0.0888370000000 -0.2858480000000 1.0  -0.02
Li     1  0.2491300000000  0.0888370000000  0.2858480000000 1.0  -0.02
O      2  0.2194040000000 -0.0696100000000 -0.5628750000000 1.0   0.02
O      2  0.1638670000000 -0.0005300000000 -0.2939680000000 1.0   0.07
O      2  0.4442010000000 -0.1943830000000 -0.3451680000000 1.0   0.01
O      2  0.0038230000000 -0.2213290000000 -0.3726140000000 1.0   0.08
O      2 -0.2805960000000  0.0696100000000  0.5628750000000 1.0   0.02
O      2 -0.3361330000000  0.0005300000000  0.2939680000000 1.0   0.07
O      2 -0.0557990000000  0.1943830000000  0.3451680000000 1.0   0.01
O      2 -0.4961770000000  0.2213290000000  0.3726140000000 1.0   0.08
O      2  0.1447590000000 -0.3285730000000 -0.0356920000000 1.0   0.07
O      2  0.2502280000000 -0.4888770000000  0.1905630000000 1.0   0.06
O      2 -0.0058580000000 -0.2884600000000  0.2247730000000 1.0   0.04
O      2  0.4305500000000 -0.2530090000000  0.1601580000000 1.0   0.03
O      2 -0.3552410000000  0.3285730000000  0.0356920000000 1.0   0.07
O      2 -0.2497720000000  0.4888770000000 -0.1905630000000 1.0   0.06
O      2 -0.5058580000000  0.2884600000000 -0.2247730000000 1.0   0.04
O      2 -0.0694500000000  0.2530090000000 -0.1601580000000 1.0   0.03
F      3 -0.2634660000000 -0.0800080000000 -0.0720200000000 1.0   0.13
F      3  0.2365340000000  0.0800080000000  0.0720200000000 1.0   0.13
F      3 -0.3413080000000 -0.5062910000000  0.4226090000000 1.0   0.07
F      3  0.1586920000000  0.5062910000000 -0.4226090000000 1.0   0.07
S      4  0.2225470000000 -0.1200730000000 -0.3979460000000 1.0   0.01
S      4 -0.2774530000000  0.1200730000000  0.3979460000000 1.0   0.01
S      4  0.2137790000000 -0.3380850000000  0.1343600000000 1.0   0.02
S      4 -0.2862210000000  0.3380850000000 -0.1343600000000 1.0   0.02
Fe     5  0.0588650000000 -0.3968930000000 -0.2373630000000 1.0   3.69
Fe     5 -0.4411350000000  0.3968930000000  0.2373630000000 1.0   3.69
Fe     5  0.2592960000000  0.1289460000000 -0.1392460000000 1.0   3.74
Fe     5 -0.2407040000000 -0.1289460000000  0.1392460000000 1.0   3.74
END
