TITL 4LiFeSO4F-200817-233404-72dc5b -0.0762 449.987670 -1.51301813E+004 -0.204279E-01 16.0854 32 (C2) n - 1
REM
REM Run started: Tue, 18 Aug 2020 13:28:31 +0100 in /lustre/scratch/uccabz1/launch_tmp/launcher_2020-08-18-07-32-47-551495
REM CASTEP 20.1 from code version af48c487+ pr-geom-scf-spinfix Tue Jun 2 15:39:59 2020 +0100
REM Functional Perdew Burke Ernzerhof Relativity Koelling-Harmon Dispersion off
REM Cut-off 340.0000 eV Grid scale 1.7500 Gmax 16.5316 1/A FBSC none
REM MP grid 3 3 1 Offset 0.000 0.000 0.000 No. kpts 4 Spacing 0.07
REM Total runtime: 21551.8 s
REM Overall efficiency: 74.5 %
REM
REM
REM
REM compiler GCC version 4.9.2
REM options -cpp -iprefix /lustre/shared/ucl/apps/gcc/4.9.2/bin/../lib/gcc/x86_64-unknown-linux-gnu/4.9.2/ -mtune=corei7 -march=x86-64 -g -Og
REM COMMAND_LINE
REM seed 1586395223 738222996 -1425002668 965582404 601078768 279339528 -897933486 -736261435 -827840800 272378493 -1300714720 1924913612
REM
REM S 3|1.8|5|6|7|30:31:32(qc=5)
REM O 2|1.5|12|13|15|20:21(qc=5)
REM Li 1|1.3|8|9|10|10U:20(qc=5)
REM Fe 3|2.2|2.0|1.0|8|9|10|40:41:32(qc=5)
REM F 2|1.6|10|12|13|20:21(qc=5)
REM 
CELL 1.54180    5.80843    5.77193   15.61013   94.97237   90.00000  120.20946
LATT -1
SFAC Li O  F  S  Fe 
Li     1 -0.3140730000000  0.2560180000000  0.2314160000000 1.0   0.01
Li     1  0.4299100000000 -0.2560160000000 -0.2314160000000 1.0   0.01
Li     1  0.2641180000000  0.3646370000000 -0.4362730000000 1.0  -0.01
Li     1 -0.1005180000000 -0.3646350000000  0.4362730000000 1.0  -0.01
O      2 -0.2335750000000 -0.3345360000000 -0.3102160000000 1.0   0.07
O      2 -0.3109300000000 -0.0096580000000 -0.3755900000000 1.0   0.07
O      2 -0.3435650000000 -0.3954980000000 -0.4652370000000 1.0   0.01
O      2  0.0985110000000 -0.0243500000000 -0.4073530000000 1.0   0.01
O      2  0.1009620000000  0.3345380000000  0.3102160000000 1.0   0.07
O      2 -0.3012710000000  0.0096600000000  0.3755900000000 1.0   0.07
O      2  0.0519340000000  0.3955000000000  0.4652370000000 1.0   0.01
O      2  0.1228620000000  0.0243520000000  0.4073530000000 1.0   0.01
O      2  0.4009770000000  0.2234590000000  0.1316110000000 1.0  -0.04
O      2  0.5093410000000  0.6728330000000  0.0899060000000 1.0  -0.08
O      2  0.0522350000000  0.3510470000000  0.1146640000000 1.0  -0.05
O      2  0.2660690000000  0.2670660000000 -0.0124390000000 1.0  -0.07
O      2  0.1775190000000 -0.2234570000000 -0.1316110000000 1.0  -0.04
O      2 -0.1634920000000 -0.6728310000000 -0.0899060000000 1.0  -0.08
O      2 -0.2988110000000 -0.3510450000000 -0.1146640000000 1.0  -0.05
O      2 -0.0009960000000 -0.2670640000000  0.0124390000000 1.0  -0.07
F      3  0.1844750000000 -0.5074680000000 -0.3181120000000 1.0   0.09
F      3 -0.3080570000000  0.5074700000000  0.3181120000000 1.0   0.09
F      3  0.3824430000000 -0.1202740000000  0.2335770000000 1.0  -0.01
F      3 -0.4972820000000  0.1202760000000 -0.2335770000000 1.0  -0.01
S      4 -0.1881120000000 -0.1857470000000 -0.3913930000000 1.0   0.01
S      4 -0.0023640000000  0.1857490000000  0.3913930000000 1.0   0.01
S      4  0.3062270000000  0.3759520000000  0.0807300000000 1.0  -0.01
S      4 -0.0697240000000 -0.3759500000000 -0.0807300000000 1.0  -0.01
Fe     5  0.2296790000000 -0.1997450000000  0.1133840000000 1.0  -3.68
Fe     5  0.4294250000000  0.1997470000000 -0.1133840000000 1.0  -3.68
Fe     5 -0.1982990000000  0.3412850000000 -0.3083510000000 1.0   3.70
Fe     5  0.4604170000000 -0.3412830000000  0.3083510000000 1.0   3.70
END
