TITL 4LiFeSO4F-200818-005555-4af6b0 -0.0240 470.533605 -1.51304599E+004 16.0000 16.2152 32 (P21) n - 1
REM
REM Run started: Tue, 18 Aug 2020 16:25:29 +0100 in /lustre/scratch/uccabz1/launch_tmp/launcher_2020-08-17-23-55-50-939721
REM CASTEP 20.1 from code version af48c487+ pr-geom-scf-spinfix Tue Jun 2 15:39:59 2020 +0100
REM Functional Perdew Burke Ernzerhof Relativity Koelling-Harmon Dispersion off
REM Cut-off 340.0000 eV Grid scale 1.7500 Gmax 16.5316 1/A FBSC none
REM MP grid 3 2 2 Offset 0.000 0.000 0.000 No. kpts 4 Spacing 0.07
REM Total runtime: 62229.2 s
REM Overall efficiency: 71.3333 %
REM
REM 4LiFeSO4F.cell (79c870615ff1d88195b1fe3fe805288c)
REM
REM compiler GCC version 4.9.2
REM options -cpp -iprefix /lustre/shared/ucl/apps/gcc/4.9.2/bin/../lib/gcc/x86_64-unknown-linux-gnu/4.9.2/ -mtune=corei7 -march=x86-64 -g -Og
REM COMMAND_LINE
REM seed -1712837444 -582304185 2140850615 -1158343483 -637428138 453753199 -494965529 -597208311 51731250 -1430168459 293381334 2005972436
REM
REM S 3|1.8|5|6|7|30:31:32(qc=5)
REM O 2|1.5|12|13|15|20:21(qc=5)
REM Li 1|1.3|8|9|10|10U:20(qc=5)
REM Fe 3|2.2|2.0|1.0|8|9|10|40:41:32(qc=5)
REM F 2|1.6|10|12|13|20:21(qc=5)
REM 
CELL 1.54180    4.81795    9.38484   11.95753  119.50864   90.00000   90.00000
LATT -1
SFAC Li O  F  S  Fe 
Li     1 -0.1284710000000  0.0413530000000  0.2806510000000 1.0  -0.02
Li     1 -0.6284710000000 -0.0413530000000 -0.2806510000000 1.0  -0.02
Li     1 -0.1725410000000  0.4034430000000  0.3933610000000 1.0  -0.00
Li     1  0.3274590000000 -0.4034430000000 -0.3933610000000 1.0  -0.00
O      2 -0.0199600000000 -0.2567600000000 -0.5787030000000 1.0   0.05
O      2  0.1068660000000 -0.2055980000000 -0.3646120000000 1.0   0.01
O      2 -0.3007400000000 -0.3723450000000 -0.4720370000000 1.0   0.01
O      2 -0.3156190000000 -0.0764130000000 -0.3936890000000 1.0   0.02
O      2  0.4800400000000  0.2567600000000  0.5787030000000 1.0   0.05
O      2  0.6068660000000  0.2055980000000  0.3646120000000 1.0   0.01
O      2  0.1992600000000  0.3723450000000  0.4720370000000 1.0   0.01
O      2  0.1843810000000  0.0764130000000  0.3936890000000 1.0   0.02
O      2  0.2473740000000 -0.3699420000000 -0.2228850000000 1.0   0.02
O      2 -0.0681420000000 -0.5910760000000 -0.2439550000000 1.0   0.06
O      2 -0.1226160000000 -0.3086970000000 -0.0656720000000 1.0   0.07
O      2  0.2801080000000 -0.4790440000000 -0.0736940000000 1.0   0.08
O      2 -0.2526260000000  0.3699420000000  0.2228850000000 1.0   0.02
O      2 -0.5681420000000  0.5910760000000  0.2439550000000 1.0   0.06
O      2 -0.6226160000000  0.3086970000000  0.0656720000000 1.0   0.07
O      2 -0.2198920000000  0.4790440000000  0.0736940000000 1.0   0.08
F      3 -0.1843710000000 -0.1684130000000  0.2332070000000 1.0   0.10
F      3  0.3156290000000  0.1684130000000 -0.2332070000000 1.0   0.10
F      3 -0.1776300000000  0.1742410000000 -0.1545530000000 1.0   0.14
F      3  0.3223700000000 -0.1742410000000  0.1545530000000 1.0   0.14
S      4 -0.1331790000000 -0.2261310000000 -0.4517190000000 1.0   0.01
S      4  0.3668210000000  0.2261310000000  0.4517190000000 1.0   0.01
S      4  0.0835900000000 -0.4356500000000 -0.1549450000000 1.0   0.02
S      4 -0.4164100000000  0.4356500000000  0.1549450000000 1.0   0.02
Fe     5 -0.3214270000000 -0.7872460000000 -0.2962460000000 1.0   3.71
Fe     5  0.1785730000000  0.7872460000000  0.2962460000000 1.0   3.71
Fe     5  0.1141280000000  0.3234760000000 -0.0549930000000 1.0   3.73
Fe     5 -0.3858720000000 -0.3234760000000  0.0549930000000 1.0   3.73
END
