TITL 4LiFeSO4F-200818-014552-c0562b 0.0290 465.920097 -1.51318747E+004 16.0005 16.2405 32 (P-1) n - 1
REM
REM Run started: Tue, 18 Aug 2020 12:29:18 +0100 in /lustre/scratch/uccabz1/launch_tmp/launcher_2020-08-18-00-45-49-252904
REM CASTEP 20.1 from code version af48c487+ pr-geom-scf-spinfix Tue Jun 2 15:39:59 2020 +0100
REM Functional Perdew Burke Ernzerhof Relativity Koelling-Harmon Dispersion off
REM Cut-off 340.0000 eV Grid scale 1.7500 Gmax 16.5316 1/A FBSC none
REM MP grid 3 2 2 Offset 0.000 0.000 0.000 No. kpts 6 Spacing 0.07
REM Total runtime: 38779.8 s
REM Overall efficiency: 69.2727 %
REM
REM 4LiFeSO4F.cell (79c870615ff1d88195b1fe3fe805288c)
REM
REM compiler GCC version 4.9.2
REM options -cpp -iprefix /lustre/shared/ucl/apps/gcc/4.9.2/bin/../lib/gcc/x86_64-unknown-linux-gnu/4.9.2/ -mtune=corei7 -march=x86-64 -g -Og
REM COMMAND_LINE
REM seed -1964880608 -1883085065 1199221634 1537881287 -1852626670 960169624 1347046171 1532189499 -1219805069 153240954 373387927 -1608994365
REM
REM S 3|1.8|5|6|7|30:31:32(qc=5)
REM O 2|1.5|12|13|15|20:21(qc=5)
REM Li 1|1.3|8|9|10|10U:20(qc=5)
REM Fe 3|2.2|2.0|1.0|8|9|10|40:41:32(qc=5)
REM F 2|1.6|10|12|13|20:21(qc=5)
REM 
CELL 1.54180    5.99565    9.67522    9.83486   99.93439  109.09502  112.96494
LATT -1
SFAC Li O  F  S  Fe 
Li     1 -0.1922230000000  0.3528700000000  0.1322660000000 1.0  -0.01
Li     1  0.1922230000000 -0.3528700000000 -0.1322660000000 1.0  -0.01
Li     1 -0.3735860000000 -0.4441840000000  0.2438390000000 1.0  -0.01
Li     1  0.3735860000000  0.4441840000000 -0.2438390000000 1.0  -0.01
O      2 -0.2716010000000 -0.1707020000000 -0.4155390000000 1.0   0.07
O      2 -0.2312590000000 -0.4004380000000 -0.5411210000000 1.0   0.01
O      2 -0.0597130000000 -0.2955640000000 -0.2617280000000 1.0   0.05
O      2  0.1717560000000 -0.1370290000000 -0.3893070000000 1.0   0.07
O      2  0.2716010000000  0.1707020000000  0.4155390000000 1.0   0.07
O      2  0.2312590000000  0.4004380000000  0.5411210000000 1.0   0.01
O      2  0.0597130000000  0.2955640000000  0.2617280000000 1.0   0.05
O      2 -0.1717560000000  0.1370290000000  0.3893070000000 1.0   0.07
O      2 -0.4056800000000  0.3387010000000 -0.2104720000000 1.0   0.01
O      2 -0.3177210000000  0.1312970000000 -0.3265390000000 1.0   0.10
O      2 -0.1324190000000  0.2524620000000 -0.0432740000000 1.0   0.06
O      2  0.0520050000000  0.4081370000000 -0.1897180000000 1.0   0.01
O      2  0.4056800000000 -0.3387010000000  0.2104720000000 1.0   0.01
O      2  0.3177210000000 -0.1312970000000  0.3265390000000 1.0   0.10
O      2  0.1324190000000 -0.2524620000000  0.0432740000000 1.0   0.06
O      2 -0.0520050000000 -0.4081370000000  0.1897180000000 1.0   0.01
F      3 -0.1327370000000 -0.0256450000000  0.0798070000000 1.0   0.17
F      3  0.1327370000000  0.0256450000000 -0.0798070000000 1.0   0.17
F      3 -0.5099140000000  0.3378460000000  0.1449420000000 1.0   0.10
F      3  0.5099140000000 -0.3378460000000 -0.1449420000000 1.0   0.10
S      4 -0.1025220000000 -0.2552510000000 -0.4071040000000 1.0   0.01
S      4  0.1025220000000  0.2552510000000  0.4071040000000 1.0   0.01
S      4 -0.1989210000000  0.2876200000000 -0.1922210000000 1.0   0.01
S      4  0.1989210000000 -0.2876200000000  0.1922210000000 1.0   0.01
Fe     5 -0.2841670000000 -0.0078470000000  0.4951180000000 1.0   3.53
Fe     5  0.2841670000000  0.0078470000000 -0.4951180000000 1.0   3.53
Fe     5 -0.1229450000000 -0.1793050000000 -0.0844660000000 1.0   3.83
Fe     5  0.1229450000000  0.1793050000000  0.0844660000000 1.0   3.83
END
