TITL 4LiFeSO4F-200818-063646-d0e6be 0.0077 505.344152 -1.51303689E+004 16.0000 16.3332 32 (P21) n - 1
REM
REM Run started: Tue, 18 Aug 2020 16:14:37 +0100 in /lustre/scratch/uccabz1/launch_tmp/launcher_2020-08-18-09-16-38-524218
REM CASTEP 20.1 from code version af48c487+ pr-geom-scf-spinfix Tue Jun 2 15:39:59 2020 +0100
REM Functional Perdew Burke Ernzerhof Relativity Koelling-Harmon Dispersion off
REM Cut-off 340.0000 eV Grid scale 1.7500 Gmax 16.5316 1/A FBSC none
REM MP grid 3 2 2 Offset 0.000 0.000 0.000 No. kpts 3 Spacing 0.07
REM Total runtime: 22837.3 s
REM Overall efficiency: 74.5556 %
REM
REM
REM
REM compiler GCC version 4.9.2
REM options -cpp -iprefix /scratch/UCL/applications/gcc/4.9.2/bin/../lib/gcc/x86_64-unknown-linux-gnu/4.9.2/ -mtune=corei7 -march=x86-64 -g -O2
REM COMMAND_LINE
REM seed 636970474 -1528277165 1787649372 -1147967356 223671519 1732254500 1394268007 1039483265 1000689430 -188474516 -226021107 -284983681
REM
REM S 3|1.8|5|6|7|30:31:32(qc=5)
REM O 2|1.5|12|13|15|20:21(qc=5)
REM Li 1|1.3|8|9|10|10U:20(qc=5)
REM Fe 3|2.2|2.0|1.0|8|9|10|40:41:32(qc=5)
REM F 2|1.6|10|12|13|20:21(qc=5)
REM 
CELL 1.54180    5.08271    8.97469   11.42687   90.00000   75.81131   90.00000
LATT -1
SFAC Li O  F  S  Fe 
Li     1  0.5723660000000 -0.0315080000000  0.3443130000000 1.0  -0.01
Li     1 -0.5723660000000  0.4684920000000 -0.3443130000000 1.0  -0.01
Li     1 -0.3987530000000  0.3428820000000  0.3247120000000 1.0  -0.01
Li     1  0.3987530000000 -0.1571180000000 -0.3247120000000 1.0  -0.01
O      2  0.0211930000000 -0.2256750000000 -0.2478530000000 1.0   0.01
O      2 -0.1765460000000 -0.1286530000000 -0.0386340000000 1.0   0.08
O      2 -0.2722290000000 -0.3864890000000 -0.0994800000000 1.0   0.06
O      2 -0.4667050000000 -0.1587670000000 -0.1715570000000 1.0   0.06
O      2 -0.0211930000000  0.2743250000000  0.2478530000000 1.0   0.01
O      2  0.1765460000000  0.3713470000000  0.0386340000000 1.0   0.08
O      2  0.2722290000000  0.1135110000000  0.0994800000000 1.0   0.06
O      2  0.4667050000000  0.3412330000000  0.1715570000000 1.0   0.06
O      2 -0.3527010000000  0.2655580000000 -0.3970830000000 1.0   0.05
O      2 -0.7630290000000  0.1049460000000 -0.3560350000000 1.0   0.06
O      2 -0.3273130000000 -0.0080780000000 -0.4384180000000 1.0   0.01
O      2 -0.5146510000000  0.1610540000000 -0.5671180000000 1.0   0.01
O      2  0.3527010000000 -0.2344420000000  0.3970830000000 1.0   0.05
O      2  0.7630290000000 -0.3950540000000  0.3560350000000 1.0   0.06
O      2  0.3273130000000 -0.5080780000000  0.4384180000000 1.0   0.01
O      2  0.5146510000000 -0.3389460000000  0.5671180000000 1.0   0.01
F      3  0.3364450000000 -0.3211540000000  0.1414720000000 1.0   0.15
F      3 -0.3364450000000  0.1788460000000 -0.1414720000000 1.0   0.15
F      3  0.1186290000000  0.4017950000000 -0.2593930000000 1.0   0.12
F      3 -0.1186290000000 -0.0982050000000  0.2593930000000 1.0   0.12
S      4 -0.2113990000000 -0.2271960000000 -0.1421480000000 1.0   0.01
S      4  0.2113990000000  0.2728040000000  0.1421480000000 1.0   0.01
S      4 -0.4868620000000  0.1296860000000 -0.4417610000000 1.0   0.01
S      4  0.4868620000000 -0.3703140000000  0.4417610000000 1.0   0.01
Fe     5  0.0815550000000 -0.2639040000000  0.2927140000000 1.0   3.75
Fe     5 -0.0815550000000  0.2360960000000 -0.2927140000000 1.0   3.75
Fe     5 -0.5042240000000  0.0107820000000 -0.0402620000000 1.0   3.66
Fe     5  0.5042240000000  0.5107820000000  0.0402620000000 1.0   3.66
END
