TITL 4LiFeSO4F-200818-003800-810b9e 0.1221 471.875653 -1.51262828E+004 16.0000 16.2458 32 (Cm) n - 1
REM
REM Run started: Tue, 18 Aug 2020 21:33:12 +0100 in /lustre/scratch/uccabz1/launch_tmp/launcher_2020-08-17-23-37-57-274350
REM CASTEP 20.1 from code version af48c487+ pr-geom-scf-spinfix Tue Jun 2 15:39:59 2020 +0100
REM Functional Perdew Burke Ernzerhof Relativity Koelling-Harmon Dispersion off
REM Cut-off 340.0000 eV Grid scale 1.7500 Gmax 16.5316 1/A FBSC none
REM MP grid 3 2 2 Offset 0.000 0.000 0.000 No. kpts 6 Spacing 0.07
REM Total runtime: 79648.1 s
REM Overall efficiency: 86 %
REM
REM 4LiFeSO4F.cell (79c870615ff1d88195b1fe3fe805288c)
REM
REM compiler GCC version 4.9.2
REM options -cpp -iprefix /lustre/shared/ucl/apps/gcc/4.9.2/bin/../lib/gcc/x86_64-unknown-linux-gnu/4.9.2/ -mtune=corei7 -march=x86-64 -g -Og
REM COMMAND_LINE
REM seed 797963165 36066151 -1322134900 -624273580 148632370 -1313101280 1220831260 -324945331 157819856 -777205128 1388846911 837664459
REM
REM S 3|1.8|5|6|7|30:31:32(qc=5)
REM O 2|1.5|12|13|15|20:21(qc=5)
REM Li 1|1.3|8|9|10|10U:20(qc=5)
REM Fe 3|2.2|2.0|1.0|8|9|10|40:41:32(qc=5)
REM F 2|1.6|10|12|13|20:21(qc=5)
REM 
CELL 1.54180    4.80668    8.43792   12.40326  109.88599   93.81267   90.00000
LATT -1
SFAC Li O  F  S  Fe 
Li     1  0.4192530000000  0.4311840000000  0.3421080000000 1.0  -0.00
Li     1  0.4192530000000 -0.0890770000000  0.3421080000000 1.0  -0.00
Li     1 -0.5826080000000 -0.1455430000000  0.0568490000000 1.0  -0.02
Li     1 -0.5826080000000  0.2023920000000  0.0568490000000 1.0  -0.02
O      2  0.0636160000000  0.2070140000000  0.1136380000000 1.0   0.01
O      2 -0.3046680000000  0.3967740000000  0.1062700000000 1.0   0.10
O      2  0.0943810000000  0.4821210000000  0.2624350000000 1.0   0.00
O      2 -0.2929430000000  0.2931760000000  0.2620000000000 1.0   0.01
O      2  0.0636160000000 -0.0933760000000  0.1136380000000 1.0   0.01
O      2 -0.3046680000000 -0.2905040000000  0.1062700000000 1.0   0.10
O      2  0.0943810000000 -0.2196860000000  0.2624350000000 1.0   0.00
O      2 -0.2929430000000 -0.0311760000000  0.2620000000000 1.0   0.01
O      2  0.1929220000000  0.0224010000000 -0.5196160000000 1.0   0.01
O      2 -0.2637870000000 -0.0308560000000 -0.4524250000000 1.0   0.03
O      2  0.1567450000000  0.0281440000000 -0.3205770000000 1.0   0.06
O      2  0.1929220000000 -0.5420180000000 -0.5196160000000 1.0   0.01
O      2 -0.2637870000000 -0.4215690000000 -0.4524250000000 1.0   0.03
O      2  0.1567450000000 -0.3487210000000 -0.3205770000000 1.0   0.06
O      2  0.6793880000000 -0.1262930000000 -0.2525860000000 1.0   0.50
O      2  0.1248900000000 -0.2454870000000  0.5090250000000 1.0   0.00
F      3 -0.4659780000000 -0.3766910000000 -0.1158980000000 1.0   0.11
F      3 -0.4659780000000  0.2607930000000 -0.1158980000000 1.0   0.11
F      3  0.3811540000000 -0.0213750000000 -0.0427500000000 1.0   0.10
F      3  0.6441760000000  0.3486970000000 -0.3026070000000 1.0   0.08
S      4 -0.0977720000000  0.3446060000000  0.1899880000000 1.0   0.01
S      4 -0.0977720000000 -0.1546170000000  0.1899880000000 1.0   0.01
S      4  0.0425430000000 -0.0423550000000 -0.4454080000000 1.0   0.01
S      4  0.0425430000000 -0.4030530000000 -0.4454080000000 1.0   0.01
Fe     5 -0.3986900000000  0.1058000000000 -0.2754140000000 1.0   3.71
Fe     5 -0.3986900000000 -0.3812140000000 -0.2754140000000 1.0   3.71
Fe     5  0.3185100000000 -0.1020950000000 -0.2041890000000 1.0   3.59
Fe     5 -0.3540510000000  0.4932520000000 -0.0134960000000 1.0   3.67
END
