TITL 4LiFeSO4F-200804-060316-934e73 -0.0123 459.013134 -1.51308323E+004 -16.0008 16.2804 32 (P21) n - 1
REM
REM Run started: Tue, 04 Aug 2020 11:22:55 +0100 in /lustre/scratch/uccabz1/launch_tmp/launcher_2020-08-04-05-03-05-018217
REM CASTEP 20.1 from code version af48c487+ pr-geom-scf-spinfix Tue Jun 2 15:39:59 2020 +0100
REM Functional Perdew Burke Ernzerhof Relativity Koelling-Harmon Dispersion off
REM Cut-off 340.0000 eV Grid scale 1.7500 Gmax 16.5316 1/A FBSC none
REM MP grid 3 2 2 Offset 0.000 0.000 0.000 No. kpts 3 Spacing 0.07
REM Total runtime: 19267.2 s
REM Overall efficiency: 74.9 %
REM
REM 4LiFeSO4F.cell (79c870615ff1d88195b1fe3fe805288c)
REM
REM compiler GCC version 4.9.2
REM options -cpp -iprefix /lustre/shared/ucl/apps/gcc/4.9.2/bin/../lib/gcc/x86_64-unknown-linux-gnu/4.9.2/ -mtune=corei7 -march=x86-64 -g -Og
REM COMMAND_LINE
REM seed -1335592471 1397909365 -486977093 1885127249 -480847966 -1291158925 -945476580 -2008985885 -967178290 1386533054 1540172593 -1915212367
REM
REM S 3|1.8|5|6|7|30:31:32(qc=5)
REM O 2|1.5|12|13|15|20:21(qc=5)
REM Li 1|1.3|8|9|10|10U:20(qc=5)
REM Fe 3|2.2|2.0|1.0|8|9|10|40:41:32(qc=5)
REM F 2|1.6|10|12|13|20:21(qc=5)
REM 
CELL 1.54180    5.09106    8.63795   10.45387   90.00000   93.18260   90.00000
LATT -1
SFAC Li O  F  S  Fe 
Li     1  0.4417600000000  0.0750940000000  0.3411450000000 1.0   0.02
Li     1 -0.4417600000000 -0.4249060000000 -0.3411450000000 1.0   0.02
Li     1 -0.0014930000000  0.5302230000000 -0.4786550000000 1.0   0.02
Li     1  0.0014930000000  0.0302230000000  0.4786550000000 1.0   0.02
O      2  0.3863160000000 -0.2849490000000 -0.2421470000000 1.0  -0.02
O      2  0.2419320000000 -0.0645280000000 -0.1183200000000 1.0  -0.08
O      2  0.6848730000000 -0.1701800000000 -0.0737090000000 1.0  -0.07
O      2  0.3080340000000 -0.3194470000000 -0.0140080000000 1.0  -0.09
O      2 -0.3863160000000  0.2150510000000  0.2421470000000 1.0  -0.02
O      2 -0.2419320000000  0.4354720000000  0.1183200000000 1.0  -0.08
O      2 -0.6848730000000  0.3298200000000  0.0737090000000 1.0  -0.07
O      2 -0.3080340000000  0.1805530000000  0.0140080000000 1.0  -0.09
O      2 -0.0823570000000  0.1683340000000 -0.2272410000000 1.0  -0.03
O      2  0.2751500000000  0.3460010000000 -0.2898500000000 1.0  -0.05
O      2 -0.0472710000000  0.4398910000000 -0.1417640000000 1.0  -0.04
O      2 -0.1866520000000  0.3882270000000 -0.3656100000000 1.0  -0.05
O      2  0.0823570000000 -0.3316660000000  0.2272410000000 1.0  -0.03
O      2 -0.2751500000000 -0.1539990000000  0.2898500000000 1.0  -0.05
O      2  0.0472710000000 -0.0601090000000  0.1417640000000 1.0  -0.04
O      2  0.1866520000000 -0.1117730000000  0.3656100000000 1.0  -0.05
F      3  0.3366980000000 -0.4397610000000  0.4969780000000 1.0  -0.07
F      3 -0.3366980000000  0.0602390000000 -0.4969780000000 1.0  -0.07
F      3  0.2139650000000  0.1948570000000  0.4581610000000 1.0  -0.08
F      3 -0.2139650000000 -0.3051430000000 -0.4581610000000 1.0  -0.08
S      4  0.4052890000000 -0.2108380000000 -0.1142570000000 1.0  -0.02
S      4 -0.4052890000000  0.2891620000000  0.1142570000000 1.0  -0.02
S      4 -0.0048170000000  0.3323180000000 -0.2485680000000 1.0  -0.02
S      4  0.0048170000000 -0.1676820000000  0.2485680000000 1.0  -0.02
Fe     5  0.4977220000000 -0.2610380000000  0.4152730000000 1.0  -3.65
Fe     5 -0.4977220000000  0.2389620000000 -0.4152730000000 1.0  -3.65
Fe     5  0.0782110000000  0.5215360000000  0.0493650000000 1.0  -3.76
Fe     5 -0.0782110000000  0.0215360000000 -0.0493650000000 1.0  -3.76
END
