TITL 4LiFeSO4F-200804-063058-f1bbb3 0.0229 421.667685 -1.51302001E+004 16.0000 16.2141 32 (Pc) n - 1
REM
REM Run started: Wed, 05 Aug 2020 01:52:22 +0100 in /lustre/scratch/uccabz1/launch_tmp/launcher_2020-08-04-16-59-16-166211
REM CASTEP 20.1 from code version af48c487+ pr-geom-scf-spinfix Tue Jun 2 15:39:59 2020 +0100
REM Functional Perdew Burke Ernzerhof Relativity Koelling-Harmon Dispersion off
REM Cut-off 340.0000 eV Grid scale 1.7500 Gmax 16.5316 1/A FBSC none
REM MP grid 3 3 2 Offset 0.000 0.000 0.000 No. kpts 5 Spacing 0.07
REM Total runtime: 35342.4 s
REM Overall efficiency: 67.5 %
REM
REM
REM
REM compiler GCC version 4.9.2
REM options -cpp -iprefix /lustre/shared/ucl/apps/gcc/4.9.2/bin/../lib/gcc/x86_64-unknown-linux-gnu/4.9.2/ -mtune=corei7 -march=x86-64 -g -Og
REM COMMAND_LINE
REM seed 1311146076 -1596596477 -349833165 1421667635 1434225271 -587151259 1579655519 1443276927 1876961743 -1457299551 -234692388 -789356225
REM
REM S 3|1.8|5|6|7|30:31:32(qc=5)
REM O 2|1.5|12|13|15|20:21(qc=5)
REM Li 1|1.3|8|9|10|10U:20(qc=5)
REM Fe 3|2.2|2.0|1.0|8|9|10|40:41:32(qc=5)
REM F 2|1.6|10|12|13|20:21(qc=5)
REM 
CELL 1.54180    8.36621    7.78552   10.58715   90.00000   90.00000  142.30417
LATT -1
SFAC Li O  F  S  Fe 
Li     1 -0.5174410000000  0.2497190000000  0.1247060000000 1.0  -0.01
Li     1 -0.0174410000000  0.2497190000000 -0.1247060000000 1.0  -0.01
Li     1 -0.4263210000000 -0.2819400000000 -0.1617870000000 1.0  -0.01
Li     1  0.0736790000000 -0.2819400000000  0.1617870000000 1.0  -0.01
O      2 -0.1513130000000  0.4532720000000  0.3444550000000 1.0   0.07
O      2 -0.5875820000000  0.0201590000000  0.2607030000000 1.0   0.01
O      2 -0.4206400000000 -0.0054980000000  0.4410650000000 1.0   0.06
O      2 -0.2196200000000  0.1317530000000  0.2292780000000 1.0   0.05
O      2  0.3486870000000  0.4532720000000 -0.3444550000000 1.0   0.07
O      2 -0.0875820000000  0.0201590000000 -0.2607030000000 1.0   0.01
O      2  0.0793600000000 -0.0054980000000 -0.4410650000000 1.0   0.06
O      2  0.2803800000000  0.1317530000000 -0.2292780000000 1.0   0.05
O      2  0.1767520000000  0.3859120000000  0.3987110000000 1.0   0.06
O      2  0.5827000000000  0.5770920000000  0.3393710000000 1.0   0.08
O      2  0.3658670000000  0.5623580000000  0.1816700000000 1.0   0.06
O      2  0.1436060000000  0.1134530000000  0.2538330000000 1.0   0.05
O      2 -0.3232480000000  0.3859120000000 -0.3987110000000 1.0   0.06
O      2  0.0827000000000  0.5770920000000 -0.3393710000000 1.0   0.08
O      2 -0.1341330000000  0.5623580000000 -0.1816700000000 1.0   0.06
O      2 -0.3563940000000  0.1134530000000 -0.2538330000000 1.0   0.05
F      3  0.2891020000000 -0.3807530000000 -0.1158990000000 1.0   0.05
F      3 -0.2108980000000 -0.3807530000000  0.1158990000000 1.0   0.05
F      3  0.2932090000000 -0.0456270000000  0.0154400000000 1.0   0.09
F      3 -0.2067910000000 -0.0456270000000 -0.0154400000000 1.0   0.09
S      4 -0.3510680000000  0.1404590000000  0.3183980000000 1.0   0.01
S      4  0.1489320000000  0.1404590000000 -0.3183980000000 1.0   0.01
S      4  0.3109350000000  0.4066250000000  0.2948730000000 1.0   0.02
S      4 -0.1890650000000  0.4066250000000 -0.2948730000000 1.0   0.02
Fe     5 -0.1779840000000 -0.3560920000000  0.4546230000000 1.0   3.64
Fe     5  0.3220160000000 -0.3560920000000 -0.4546230000000 1.0   3.64
Fe     5  0.2837990000000 -0.1232460000000 -0.1605950000000 1.0   3.79
Fe     5 -0.2162010000000 -0.1232460000000  0.1605950000000 1.0   3.79
END
