TITL 4LiFeSO4F-200818-091532-abb6e3 -0.0379 682.860786 -1.51272034E+004 16.0000 16.5895 32 (Cm) n - 1
REM
REM Run started: Thu, 20 Aug 2020 01:23:38 +0100 in /lustre/scratch/uccabz1/launch_tmp/launcher_2020-08-19-13-55-48-324656
REM CASTEP 20.1 from code version af48c487+ pr-geom-scf-spinfix Tue Jun 2 15:39:59 2020 +0100
REM Functional Perdew Burke Ernzerhof Relativity Koelling-Harmon Dispersion off
REM Cut-off 340.0000 eV Grid scale 1.7500 Gmax 16.5316 1/A FBSC none
REM MP grid 3 2 3 Offset 0.000 0.000 0.000 No. kpts 9 Spacing 0.07
REM Total runtime: 67554.8 s
REM Overall efficiency: 98.8 %
REM
REM
REM
REM compiler GCC version 4.9.2
REM options -cpp -iprefix /lustre/shared/ucl/apps/gcc/4.9.2/bin/../lib/gcc/x86_64-unknown-linux-gnu/4.9.2/ -mtune=corei7 -march=x86-64 -g -Og
REM COMMAND_LINE
REM seed -2109640092 1717882044 -1149559617 -1164021040 -2078050989 -1907975423 -1979227862 -932682198 519423389 -1493674919 205235463 692207556
REM
REM S 3|1.8|5|6|7|30:31:32(qc=5)
REM O 2|1.5|12|13|15|20:21(qc=5)
REM Li 1|1.3|8|9|10|10U:20(qc=5)
REM Fe 3|2.2|2.0|1.0|8|9|10|40:41:32(qc=5)
REM F 2|1.6|10|12|13|20:21(qc=5)
REM 
CELL 1.54180   12.96908   12.96908    8.69365   75.06477  127.90524  139.54695
LATT -1
SFAC Li O  F  S  Fe 
Li     1  0.5436620000000 -0.3410570000000  0.2026040000000 1.0  -0.01
Li     1 -0.3384830000000  0.1752800000000 -0.1632030000000 1.0  -0.01
Li     1  0.1394770000000  0.2678950000000  0.4073710000000 1.0  -0.02
Li     1  0.0930080000000 -0.3394840000000 -0.2464760000000 1.0  -0.02
O      2  0.1232210000000 -0.1640030000000  0.2794610000000 1.0   0.07
O      2  0.4116280000000 -0.0765050000000  0.6469320000000 1.0   0.02
O      2  0.0816060000000 -0.3795210000000  0.3888950000000 1.0   0.06
O      2  0.0814720000000 -0.2443580000000  0.5424920000000 1.0   0.06
O      2 -0.5565350000000  0.1562410000000  0.2794610000000 1.0   0.07
O      2 -0.2765640000000  0.2353040000000  0.6469320000000 1.0   0.02
O      2 -0.2315840000000  0.3072890000000  0.3888950000000 1.0   0.06
O      2 -0.2131490000000  0.4610200000000  0.5424920000000 1.0   0.06
O      2  0.2559620000000  0.4120240000000 -0.0301830000000 1.0   0.05
O      2  0.1944360000000  0.3206000000000  0.2152350000000 1.0   0.02
O      2  0.5296960000000  0.4937990000000  0.3279660000000 1.0   0.06
O      2  0.1999200000000  0.1848610000000  0.0677050000000 1.0   0.06
O      2 -0.4422060000000 -0.2861440000000 -0.0301830000000 1.0   0.05
O      2 -0.1053640000000  0.0208000000000  0.2152350000000 1.0   0.02
O      2 -0.1658330000000 -0.2017310000000  0.3279660000000 1.0   0.06
O      2 -0.1171560000000 -0.1322150000000  0.0677050000000 1.0   0.06
F      3 -0.1203860000000 -0.5840660000000  0.0092890000000 1.0   0.14
F      3  0.5933550000000  0.1296760000000  0.0092890000000 1.0   0.14
F      3  0.0891630000000  0.2204780000000 -0.4028330000000 1.0   0.15
F      3 -0.6233100000000 -0.4919960000000 -0.4028330000000 1.0   0.15
S      4  0.1817860000000 -0.2119210000000  0.4653810000000 1.0   0.02
S      4 -0.3226990000000  0.2835950000000  0.4653810000000 1.0   0.02
S      4  0.2852280000000  0.3435730000000  0.1438180000000 1.0   0.02
S      4 -0.1997560000000 -0.1414100000000  0.1438180000000 1.0   0.02
Fe     5 -0.1733680000000  0.3669600000000  0.1935920000000 1.0   3.71
Fe     5  0.1651700000000  0.0109660000000  0.1761370000000 1.0   3.63
Fe     5  0.3104720000000  0.4561190000000 -0.2334090000000 1.0   3.68
Fe     5 -0.2128600000000 -0.3875820000000 -0.6004420000000 1.0   3.59
END
