TITL 4LiFeSO4F-200804-082156-a069ca -0.0116 466.422265 -1.51302341E+004 16.0000 16.1785 32 (P43) n - 1
REM
REM Run started: Tue, 04 Aug 2020 10:08:45 +0100 in /lustre/scratch/uccabz1/launch_tmp/launcher_2020-08-04-07-21-52-966878
REM CASTEP 20.1 from code version af48c487+ pr-geom-scf-spinfix Tue Jun 2 15:39:59 2020 +0100
REM Functional Perdew Burke Ernzerhof Relativity Koelling-Harmon Dispersion off
REM Cut-off 340.0000 eV Grid scale 1.7500 Gmax 16.5316 1/A FBSC none
REM MP grid 2 2 2 Offset 0.000 0.000 0.000 No. kpts 1 Spacing 0.07
REM Total runtime: 6993.56 s
REM Overall efficiency: 70.9167 %
REM
REM 4LiFeSO4F.cell (79c870615ff1d88195b1fe3fe805288c)
REM
REM compiler GCC version 4.9.2
REM options -cpp -iprefix /lustre/shared/ucl/apps/gcc/4.9.2/bin/../lib/gcc/x86_64-unknown-linux-gnu/4.9.2/ -mtune=corei7 -march=x86-64 -g -Og
REM COMMAND_LINE
REM seed 1367880203 1359431428 -1567546435 722359215 -749435330 -1608304587 516320482 207883209 45315415 -171488559 -1707032273 1167424851
REM
REM S 3|1.8|5|6|7|30:31:32(qc=5)
REM O 2|1.5|12|13|15|20:21(qc=5)
REM Li 1|1.3|8|9|10|10U:20(qc=5)
REM Fe 3|2.2|2.0|1.0|8|9|10|40:41:32(qc=5)
REM F 2|1.6|10|12|13|20:21(qc=5)
REM 
CELL 1.54180    7.46821    7.46821    8.36269   90.00000   90.00000   90.00000
LATT -1
SFAC Li O  F  S  Fe 
Li     1 -0.4238890000000 -0.1856680000000 -0.4205900000000 1.0  -0.02
Li     1  0.4238890000000  0.1856680000000  0.0794100000000 1.0  -0.02
Li     1  0.1856680000000 -0.4238890000000  0.3294100000000 1.0  -0.02
Li     1 -0.1856680000000  0.4238890000000 -0.1705900000000 1.0  -0.02
O      2  0.3163860000000  0.3664320000000  0.3485150000000 1.0   0.01
O      2  0.1838740000000  0.1231800000000  0.5141060000000 1.0   0.08
O      2  0.5054480000000  0.1631850000000  0.5098280000000 1.0   0.09
O      2  0.3491620000000  0.0536920000000  0.2673210000000 1.0   0.01
O      2 -0.3163860000000 -0.3664320000000 -0.1514850000000 1.0   0.01
O      2 -0.1838740000000 -0.1231800000000  0.0141060000000 1.0   0.08
O      2 -0.5054480000000 -0.1631850000000  0.0098280000000 1.0   0.09
O      2 -0.3491620000000 -0.0536920000000 -0.2326790000000 1.0   0.01
O      2 -0.3664320000000  0.3163860000000  0.0985150000000 1.0   0.01
O      2 -0.1231800000000  0.1838740000000  0.2641060000000 1.0   0.08
O      2 -0.1631850000000  0.5054480000000  0.2598280000000 1.0   0.09
O      2 -0.0536920000000  0.3491620000000  0.0173210000000 1.0   0.01
O      2  0.3664320000000 -0.3163860000000 -0.4014850000000 1.0   0.01
O      2  0.1231800000000 -0.1838740000000 -0.2358940000000 1.0   0.08
O      2  0.1631850000000 -0.5054480000000 -0.2401720000000 1.0   0.09
O      2  0.0536920000000 -0.3491620000000 -0.4826790000000 1.0   0.01
F      3 -0.2680560000000 -0.1229730000000  0.4092240000000 1.0   0.10
F      3  0.2680560000000  0.1229730000000 -0.0907760000000 1.0   0.10
F      3  0.1229730000000 -0.2680560000000  0.1592240000000 1.0   0.10
F      3 -0.1229730000000  0.2680560000000 -0.3407760000000 1.0   0.10
S      4  0.3376730000000  0.1790290000000  0.4049050000000 1.0   0.01
S      4 -0.3376730000000 -0.1790290000000 -0.0950950000000 1.0   0.01
S      4 -0.1790290000000  0.3376730000000  0.1549050000000 1.0   0.01
S      4  0.1790290000000 -0.3376730000000 -0.3450950000000 1.0   0.01
Fe     5 -0.1465580000000 -0.2360520000000  0.2248360000000 1.0   3.72
Fe     5  0.1465580000000  0.2360520000000 -0.2751640000000 1.0   3.72
Fe     5  0.2360520000000 -0.1465580000000 -0.0251640000000 1.0   3.72
Fe     5 -0.2360520000000  0.1465580000000 -0.5251640000000 1.0   3.72
END
