TITL 4LiFeSO4F-200818-000756-044063 0.0514 480.498595 -1.51302933E+004 16.0000 16.2265 32 (Cc) n - 1
REM
REM Run started: Tue, 18 Aug 2020 10:52:14 +0100 in /scratch/scratch/uccabz1/launch_tmp/launcher_2020-08-17-23-07-53-917017
REM CASTEP 19.11| from code version Version unavailable
REM Functional Perdew Burke Ernzerhof Relativity Koelling-Harmon Dispersion off
REM Cut-off 340.0000 eV Grid scale 1.7500 Gmax 16.5316 1/A FBSC none
REM MP grid 3 3 2 Offset 0.000 0.000 0.000 No. kpts 6 Spacing 0.07
REM Total runtime: 43179.4 s
REM Overall efficiency: 77.25 %
REM
REM 4LiFeSO4F.cell (79c870615ff1d88195b1fe3fe805288c)
REM
REM compiler GCC version 4.9.2
REM options -cpp -iprefix /scratch/UCL/applications/gcc/4.9.2/bin/../lib/gcc/x86_64-unknown-linux-gnu/4.9.2/ -mtune=corei7 -march=x86-64 -g -O2
REM COMMAND_LINE
REM seed 2126126284 -725301989 441645605 471684879 1485661048 -1852143150 909733130 1888568094 -1781560570 -1106989578 1720737672 -1480979504
REM
REM S 3|1.8|5|6|7|30:31:32(qc=5)
REM O 2|1.5|12|13|15|20:21(qc=5)
REM Li 1|1.3|8|9|10|10U:20(qc=5)
REM Fe 3|2.2|2.0|1.0|8|9|10|40:41:32(qc=5)
REM F 2|1.6|10|12|13|20:21(qc=5)
REM 
CELL 1.54180    7.61322    7.61322   10.04920  102.07836  102.07836  116.08860
LATT -1
SFAC Li O  F  S  Fe 
Li     1  0.5713500000000 -0.0014700000000 -0.1032260000000 1.0  -0.01
Li     1  0.4985300000000  0.0713500000000  0.3967740000000 1.0  -0.01
Li     1 -0.2163750000000 -0.3529890000000 -0.5029010000000 1.0  -0.02
Li     1  0.1470110000000  0.2836250000000 -0.0029010000000 1.0  -0.02
O      2 -0.1703480000000 -0.2068250000000 -0.2997970000000 1.0   0.05
O      2 -0.1554230000000  0.0863830000000 -0.1276440000000 1.0   0.01
O      2 -0.2096060000000  0.0538060000000 -0.3904820000000 1.0   0.01
O      2  0.1300890000000  0.1537980000000 -0.2138250000000 1.0   0.05
O      2 -0.7068250000000  0.3296520000000  0.2002030000000 1.0   0.05
O      2 -0.4136170000000  0.3445770000000  0.3723560000000 1.0   0.01
O      2 -0.4461940000000  0.2903940000000  0.1095180000000 1.0   0.01
O      2 -0.3462020000000  0.6300890000000  0.2861750000000 1.0   0.05
O      2  0.5037970000000 -0.1769380000000  0.0181430000000 1.0   0.06
O      2  0.3559070000000 -0.1176800000000  0.2059180000000 1.0   0.01
O      2  0.1720860000000 -0.4596850000000  0.0125380000000 1.0   0.01
O      2  0.1851930000000 -0.1610970000000 -0.0478860000000 1.0   0.07
O      2  0.3230620000000  0.0037970000000  0.5181430000000 1.0   0.06
O      2  0.3823200000000 -0.1440930000000  0.7059180000000 1.0   0.01
O      2  0.0403150000000 -0.3279140000000  0.5125380000000 1.0   0.01
O      2  0.3389030000000 -0.3148070000000  0.4521140000000 1.0   0.07
F      3 -0.3820190000000 -0.5949210000000 -0.2406200000000 1.0   0.13
F      3 -0.0949210000000  0.1179810000000  0.2593800000000 1.0   0.13
F      3  0.1931030000000  0.3340280000000 -0.4560700000000 1.0   0.15
F      3 -0.1659720000000  0.6931030000000  0.0439300000000 1.0   0.15
S      4 -0.1098110000000  0.0240060000000 -0.2629600000000 1.0   0.01
S      4 -0.4759940000000  0.3901890000000  0.2370400000000 1.0   0.01
S      4  0.2998750000000 -0.2317670000000  0.0513320000000 1.0   0.01
S      4  0.2682330000000 -0.2001250000000  0.5513320000000 1.0   0.01
Fe     5 -0.1213690000000 -0.3278640000000 -0.1425290000000 1.0   3.72
Fe     5  0.1721360000000  0.3786310000000  0.3574710000000 1.0   3.72
Fe     5  0.3166350000000  0.2243110000000 -0.3321960000000 1.0   3.75
Fe     5 -0.2756890000000 -0.1833650000000  0.1678040000000 1.0   3.75
END
