TITL 4LiFeSO4F-200804-071830-e56437 -0.6924 462.592140 -1.51304927E+004 16.0000 16.2041 32 (C2) n - 1
REM
REM Run started: Tue, 04 Aug 2020 21:58:22 +0100 in /lustre/scratch/uccabz1/launch_tmp/launcher_2020-08-04-15-00-48-925086
REM CASTEP 20.1 from code version af48c487+ pr-geom-scf-spinfix Tue Jun 2 15:39:59 2020 +0100
REM Functional Perdew Burke Ernzerhof Relativity Koelling-Harmon Dispersion off
REM Cut-off 340.0000 eV Grid scale 1.7500 Gmax 16.5316 1/A FBSC none
REM MP grid 3 3 2 Offset 0.000 0.000 0.000 No. kpts 6 Spacing 0.07
REM Total runtime: 29203.4 s
REM Overall efficiency: 72.1429 %
REM
REM
REM
REM compiler GCC version 4.9.2
REM options -cpp -iprefix /lustre/shared/ucl/apps/gcc/4.9.2/bin/../lib/gcc/x86_64-unknown-linux-gnu/4.9.2/ -mtune=corei7 -march=x86-64 -g -Og
REM COMMAND_LINE
REM seed -1723680185 -515607862 -494807461 1991924679 1557302734 1595407217 -286083725 1662087139 -1428962874 -1942519150 1611504611 -2103903589
REM
REM S 3|1.8|5|6|7|30:31:32(qc=5)
REM O 2|1.5|12|13|15|20:21(qc=5)
REM Li 1|1.3|8|9|10|10U:20(qc=5)
REM Fe 3|2.2|2.0|1.0|8|9|10|40:41:32(qc=5)
REM F 2|1.6|10|12|13|20:21(qc=5)
REM 
CELL 1.54180    6.10779    6.10779   12.42654   92.46798   92.46798   88.58031
LATT -1
SFAC Li O  F  S  Fe 
Li     1  0.1546610000000 -0.5721330000000 -0.1199500000000 1.0  -0.02
Li     1  0.5721330000000 -0.1546610000000  0.1199500000000 1.0  -0.02
Li     1 -0.5944130000000  0.3760390000000  0.4055420000000 1.0  -0.01
Li     1 -0.3760390000000  0.5944130000000 -0.4055420000000 1.0  -0.01
O      2  0.1217800000000 -0.6541310000000 -0.2741330000000 1.0   0.05
O      2  0.1543970000000 -0.2631210000000 -0.3049020000000 1.0   0.07
O      2 -0.0754800000000 -0.4974620000000 -0.4333120000000 1.0   0.01
O      2  0.3257090000000 -0.5390030000000 -0.4282120000000 1.0   0.01
O      2  0.6541310000000 -0.1217800000000  0.2741330000000 1.0   0.05
O      2  0.2631210000000 -0.1543970000000  0.3049020000000 1.0   0.07
O      2  0.4974620000000  0.0754800000000  0.4333120000000 1.0   0.01
O      2  0.5390030000000 -0.3257090000000  0.4282120000000 1.0   0.01
O      2 -0.4066750000000 -0.2001620000000 -0.0663320000000 1.0   0.06
O      2 -0.3103980000000 -0.3692020000000 -0.2435800000000 1.0   0.01
O      2 -0.5235600000000 -0.5709310000000 -0.1164520000000 1.0   0.06
O      2 -0.1379170000000 -0.5025460000000 -0.0720740000000 1.0   0.03
O      2  0.2001620000000  0.4066750000000  0.0663320000000 1.0   0.06
O      2  0.3692020000000  0.3103980000000  0.2435800000000 1.0   0.01
O      2  0.5709310000000  0.5235600000000  0.1164520000000 1.0   0.06
O      2  0.5025460000000  0.1379170000000  0.0720740000000 1.0   0.03
F      3  0.1982240000000  0.0743060000000 -0.1224030000000 1.0   0.13
F      3 -0.0743060000000 -0.1982240000000  0.1224030000000 1.0   0.13
F      3 -0.2826490000000  0.0951030000000 -0.2421490000000 1.0   0.14
F      3 -0.0951030000000  0.2826490000000  0.2421490000000 1.0   0.14
S      4  0.1272730000000 -0.4891470000000 -0.3638210000000 1.0   0.01
S      4  0.4891470000000 -0.1272730000000  0.3638210000000 1.0   0.01
S      4 -0.3404420000000 -0.4083230000000 -0.1288670000000 1.0   0.01
S      4  0.4083230000000  0.3404420000000  0.1288670000000 1.0   0.01
Fe     5 -0.1011690000000 -0.5272850000000  0.1119130000000 1.0   3.73
Fe     5  0.5272850000000  0.1011690000000 -0.1119130000000 1.0   3.73
Fe     5 -0.0234240000000 -0.0244760000000  0.2601450000000 1.0   3.72
Fe     5  0.0244760000000  0.0234240000000 -0.2601450000000 1.0   3.72
END
