TITL 4LiFeSO4F-200818-045025-1f2d2f -0.0220 408.470167 -1.51312334E+004 16.0000 16.3031 32 (Pc) n - 1
REM
REM Run started: Tue, 18 Aug 2020 13:26:40 +0100 in /lustre/scratch/uccabz1/launch_tmp/launcher_2020-08-18-03-50-22-813921
REM CASTEP 20.1 from code version af48c487+ pr-geom-scf-spinfix Tue Jun 2 15:39:59 2020 +0100
REM Functional Perdew Burke Ernzerhof Relativity Koelling-Harmon Dispersion off
REM Cut-off 340.0000 eV Grid scale 1.7500 Gmax 16.5316 1/A FBSC none
REM MP grid 3 2 2 Offset 0.000 0.000 0.000 No. kpts 4 Spacing 0.07
REM Total runtime: 35296.9 s
REM Overall efficiency: 74.8333 %
REM
REM 4LiFeSO4F.cell (79c870615ff1d88195b1fe3fe805288c)
REM
REM compiler GCC version 4.9.2
REM options -cpp -iprefix /lustre/shared/ucl/apps/gcc/4.9.2/bin/../lib/gcc/x86_64-unknown-linux-gnu/4.9.2/ -mtune=corei7 -march=x86-64 -g -Og
REM COMMAND_LINE
REM seed 441790673 333669297 -229822872 -411340598 -1553548425 186480874 1220458663 1948901570 658838652 2115466524 2002047528 1362749132
REM
REM S 3|1.8|5|6|7|30:31:32(qc=5)
REM O 2|1.5|12|13|15|20:21(qc=5)
REM Li 1|1.3|8|9|10|10U:20(qc=5)
REM Fe 3|2.2|2.0|1.0|8|9|10|40:41:32(qc=5)
REM F 2|1.6|10|12|13|20:21(qc=5)
REM 
CELL 1.54180    5.33295    9.53243    8.83875  114.62237   90.00000   90.00000
LATT -1
SFAC Li O  F  S  Fe 
Li     1 -0.1201850000000 -0.3305870000000 -0.6083100000000 1.0  -0.02
Li     1  0.1201850000000  0.1694130000000 -0.1083100000000 1.0  -0.02
Li     1  0.6211340000000  0.0563830000000  0.0147730000000 1.0  -0.03
Li     1 -0.6211340000000 -0.4436170000000  0.5147730000000 1.0  -0.03
O      2  0.0954160000000  0.2960020000000 -0.2193640000000 1.0   0.01
O      2  0.0844280000000  0.2921890000000 -0.4978150000000 1.0   0.08
O      2  0.3019040000000  0.5015850000000 -0.2781010000000 1.0   0.04
O      2 -0.1605830000000  0.4871090000000 -0.2687990000000 1.0   0.05
O      2 -0.0954160000000 -0.2039980000000  0.2806360000000 1.0   0.01
O      2 -0.0844280000000 -0.2078110000000  0.0021850000000 1.0   0.08
O      2 -0.3019040000000  0.0015850000000  0.2218990000000 1.0   0.04
O      2  0.1605830000000 -0.0128910000000  0.2312010000000 1.0   0.05
O      2  0.4272430000000  0.5255210000000  0.0587650000000 1.0   0.05
O      2  0.6982730000000  0.4699840000000  0.2500210000000 1.0   0.06
O      2  0.4453010000000  0.2594240000000  0.0405970000000 1.0   0.01
O      2  0.2395040000000  0.4643940000000  0.2788660000000 1.0   0.03
O      2 -0.4272430000000  0.0255210000000 -0.4412350000000 1.0   0.05
O      2 -0.6982730000000 -0.0300160000000 -0.2499790000000 1.0   0.06
O      2 -0.4453010000000 -0.2405760000000 -0.4594030000000 1.0   0.01
O      2 -0.2395040000000 -0.0356060000000 -0.2211340000000 1.0   0.03
F      3  0.4178630000000 -0.2002160000000 -0.0803410000000 1.0   0.13
F      3 -0.4178630000000  0.2997840000000  0.4196590000000 1.0   0.13
F      3 -0.0595350000000  0.1734010000000  0.0738870000000 1.0   0.09
F      3  0.0595350000000 -0.3265990000000 -0.4261130000000 1.0   0.09
S      4  0.0791660000000  0.3955840000000 -0.3081270000000 1.0   0.01
S      4 -0.0791660000000 -0.1044160000000  0.1918730000000 1.0   0.01
S      4  0.4510350000000  0.4273090000000  0.1530180000000 1.0   0.01
S      4 -0.4510350000000 -0.0726910000000 -0.3469820000000 1.0   0.01
Fe     5 -0.4101660000000 -0.3847170000000 -0.0927510000000 1.0   3.72
Fe     5  0.4101660000000  0.1152830000000  0.4072490000000 1.0   3.72
Fe     5  0.0836310000000 -0.1819950000000 -0.1945200000000 1.0   3.76
Fe     5 -0.0836310000000  0.3180050000000  0.3054800000000 1.0   3.76
END
