TITL 4LiFeSO4F-200818-005152-a7ebb9 -0.0415 539.188943 -1.51303788E+004 18.0000 18.1049 32 (Cm) n - 1
REM
REM Run started: Wed, 19 Aug 2020 02:38:31 +0100 in /lustre/scratch/uccabz1/launch_tmp/launcher_2020-08-17-23-51-44-458174
REM CASTEP 20.1 from code version af48c487+ pr-geom-scf-spinfix Tue Jun 2 15:39:59 2020 +0100
REM Functional Perdew Burke Ernzerhof Relativity Koelling-Harmon Dispersion off
REM Cut-off 340.0000 eV Grid scale 1.7500 Gmax 16.5316 1/A FBSC none
REM MP grid 3 2 2 Offset 0.000 0.000 0.000 No. kpts 5 Spacing 0.07
REM Total runtime: 102333 s
REM Overall efficiency: 68.0833 %
REM
REM 4LiFeSO4F.cell (79c870615ff1d88195b1fe3fe805288c)
REM
REM compiler GCC version 4.9.2
REM options -cpp -iprefix /lustre/shared/ucl/apps/gcc/4.9.2/bin/../lib/gcc/x86_64-unknown-linux-gnu/4.9.2/ -mtune=corei7 -march=x86-64 -g -Og
REM COMMAND_LINE
REM seed 681488871 -1766621043 1944134694 1852498207 1865475666 -1445931348 -1255034203 -516269705 -882813484 -2076575640 -837874986 31539259
REM
REM S 3|1.8|5|6|7|30:31:32(qc=5)
REM O 2|1.5|12|13|15|20:21(qc=5)
REM Li 1|1.3|8|9|10|10U:20(qc=5)
REM Fe 3|2.2|2.0|1.0|8|9|10|40:41:32(qc=5)
REM F 2|1.6|10|12|13|20:21(qc=5)
REM 
CELL 1.54180    7.71851   10.69450   10.69450  108.35834  116.61301  116.61301
LATT -1
SFAC Li O  F  S  Fe 
Li     1  0.2784610000000 -0.3731030000000 -0.5701680000000 1.0  -0.00
Li     1  0.2784610000000 -0.5701680000000 -0.3731030000000 1.0  -0.00
Li     1  0.2547910000000 -0.2427290000000  0.2273970000000 1.0  -0.00
Li     1  0.2547910000000  0.2273970000000 -0.2427290000000 1.0  -0.00
O      2  0.0215310000000  0.6650300000000  0.2696520000000 1.0   0.02
O      2 -0.4668210000000  0.3813980000000  0.0099720000000 1.0   0.01
O      2 -0.2788520000000  0.5728850000000  0.3190720000000 1.0   0.16
O      2 -0.1568950000000  0.4043760000000  0.2554060000000 1.0   0.07
O      2  0.0215310000000  0.2696520000000  0.6650300000000 1.0   0.02
O      2 -0.4668210000000  0.0099720000000  0.3813980000000 1.0   0.01
O      2 -0.2788520000000  0.3190720000000  0.5728850000000 1.0   0.16
O      2 -0.1568950000000  0.2554060000000  0.4043760000000 1.0   0.07
O      2 -0.2660920000000  0.2381870000000 -0.1601980000000 1.0   0.21
O      2 -0.2701670000000 -0.0023230000000 -0.1938770000000 1.0   0.12
O      2  0.0039970000000  0.2789960000000  0.1167820000000 1.0   0.13
O      2 -0.2660920000000 -0.1601980000000  0.2381870000000 1.0   0.21
O      2 -0.2701670000000 -0.1938770000000 -0.0023230000000 1.0   0.12
O      2  0.0039970000000  0.1167820000000  0.2789960000000 1.0   0.13
O      2  0.3799880000000 -0.3654110000000 -0.3654110000000 1.0   0.44
O      2  0.4977560000000 -0.0480060000000 -0.0480060000000 1.0   0.53
F      3  0.0716490000000 -0.3749190000000 -0.0142560000000 1.0   0.19
F      3  0.0716490000000 -0.0142560000000 -0.3749190000000 1.0   0.19
F      3  0.4507590000000  0.3535750000000 -0.2985710000000 1.0   0.13
F      3  0.4507590000000 -0.2985710000000  0.3535750000000 1.0   0.13
S      4 -0.2260440000000  0.5024610000000  0.2048880000000 1.0   0.01
S      4 -0.2260440000000  0.2048880000000  0.5024610000000 1.0   0.01
S      4 -0.0738090000000  0.2118800000000 -0.0657160000000 1.0   0.03
S      4 -0.0738090000000 -0.0657160000000  0.2118800000000 1.0   0.03
Fe     5 -0.2472980000000 -0.2241620000000  0.3869550000000 1.0   3.97
Fe     5 -0.2472980000000  0.3869550000000 -0.2241620000000 1.0   3.97
Fe     5 -0.2123310000000  0.1774900000000  0.1774900000000 1.0   3.93
Fe     5  0.5474480000000 -0.1670790000000 -0.1670790000000 1.0   3.03
END
