TITL 4LiFeSO4F-200804-073529-3a848f 0.0114 479.073022 -1.51305623E+004 16.0000 16.3534 32 (Pc) n - 1
REM
REM Run started: Tue, 04 Aug 2020 17:16:01 +0100 in /lustre/scratch/uccabz1/launch_tmp/launcher_2020-08-04-06-35-27-220559
REM CASTEP 20.1 from code version af48c487+ pr-geom-scf-spinfix Tue Jun 2 15:39:59 2020 +0100
REM Functional Perdew Burke Ernzerhof Relativity Koelling-Harmon Dispersion off
REM Cut-off 340.0000 eV Grid scale 1.7500 Gmax 16.5316 1/A FBSC none
REM MP grid 3 3 2 Offset 0.000 0.000 0.000 No. kpts 5 Spacing 0.07
REM Total runtime: 37828.3 s
REM Overall efficiency: 74.8333 %
REM
REM 4LiFeSO4F.cell (79c870615ff1d88195b1fe3fe805288c)
REM
REM compiler GCC version 4.9.2
REM options -cpp -iprefix /lustre/shared/ucl/apps/gcc/4.9.2/bin/../lib/gcc/x86_64-unknown-linux-gnu/4.9.2/ -mtune=corei7 -march=x86-64 -g -Og
REM COMMAND_LINE
REM seed 213724719 -448105851 -1587379860 -2120537764 1219409663 1197838348 447319915 1466377527 -1113823391 1002171645 -1285727266 -1471209133
REM
REM S 3|1.8|5|6|7|30:31:32(qc=5)
REM O 2|1.5|12|13|15|20:21(qc=5)
REM Li 1|1.3|8|9|10|10U:20(qc=5)
REM Fe 3|2.2|2.0|1.0|8|9|10|40:41:32(qc=5)
REM F 2|1.6|10|12|13|20:21(qc=5)
REM 
CELL 1.54180    8.30951    8.77435    8.30594   90.00000   90.00000  127.71309
LATT -1
SFAC Li O  F  S  Fe 
Li     1  0.3310030000000  0.4020290000000 -0.2404520000000 1.0  -0.02
Li     1 -0.1689970000000  0.4020290000000  0.2404520000000 1.0  -0.02
Li     1  0.3043940000000  0.0898040000000  0.3638770000000 1.0  -0.01
Li     1 -0.1956060000000  0.0898040000000 -0.3638770000000 1.0  -0.01
O      2 -0.3906900000000  0.4829000000000 -0.3076330000000 1.0   0.06
O      2 -0.2170760000000  0.3445700000000 -0.3033160000000 1.0   0.05
O      2 -0.3009740000000  0.4132390000000 -0.5701120000000 1.0   0.01
O      2 -0.5745760000000  0.1481280000000 -0.4091890000000 1.0   0.05
O      2  0.1093100000000  0.4829000000000  0.3076330000000 1.0   0.06
O      2  0.2829240000000  0.3445700000000  0.3033160000000 1.0   0.05
O      2  0.1990260000000  0.4132390000000  0.5701120000000 1.0   0.01
O      2 -0.0745760000000  0.1481280000000  0.4091890000000 1.0   0.05
O      2 -0.2347430000000  0.1690730000000  0.1036840000000 1.0   0.02
O      2 -0.4288570000000 -0.1675140000000  0.1923320000000 1.0   0.10
O      2 -0.5578120000000 -0.0927270000000 -0.0326110000000 1.0   0.06
O      2 -0.5650920000000  0.0143560000000  0.2394060000000 1.0   0.01
O      2  0.2652570000000  0.1690730000000 -0.1036840000000 1.0   0.02
O      2  0.0711430000000 -0.1675140000000 -0.1923320000000 1.0   0.10
O      2 -0.0578120000000 -0.0927270000000  0.0326110000000 1.0   0.06
O      2 -0.0650920000000  0.0143560000000 -0.2394060000000 1.0   0.01
F      3 -0.4702480000000 -0.0977920000000 -0.3724900000000 1.0   0.14
F      3  0.0297520000000 -0.0977920000000  0.3724900000000 1.0   0.14
F      3  0.2658150000000 -0.5050470000000 -0.0775540000000 1.0   0.13
F      3 -0.2341850000000 -0.5050470000000  0.0775540000000 1.0   0.13
S      4 -0.3688370000000  0.3478960000000 -0.4038500000000 1.0   0.00
S      4  0.1311630000000  0.3478960000000  0.4038500000000 1.0   0.00
S      4 -0.4463130000000 -0.0073110000000  0.1241220000000 1.0   0.01
S      4  0.0536870000000 -0.0073110000000 -0.1241220000000 1.0   0.01
Fe     5 -0.1642760000000 -0.4416610000000 -0.1353610000000 1.0   3.67
Fe     5  0.3357240000000 -0.4416610000000  0.1353610000000 1.0   3.67
Fe     5  0.3616250000000 -0.0666220000000 -0.2516560000000 1.0   3.69
Fe     5 -0.1383750000000 -0.0666220000000  0.2516560000000 1.0   3.69
END
