TITL 4LiFeSO4F-200818-031500-acb0af -0.0325 543.359388 -1.51291178E+004 16.0000 16.3713 32 (C2221) n - 1
REM
REM Run started: Tue, 18 Aug 2020 07:41:10 +0100 in /lustre/scratch/uccabz1/launch_tmp/launcher_2020-08-18-02-14-55-584391
REM CASTEP 20.1 from code version af48c487+ pr-geom-scf-spinfix Tue Jun 2 15:39:59 2020 +0100
REM Functional Perdew Burke Ernzerhof Relativity Koelling-Harmon Dispersion off
REM Cut-off 340.0000 eV Grid scale 1.7500 Gmax 16.5316 1/A FBSC none
REM MP grid 3 3 1 Offset 0.000 0.000 0.000 No. kpts 4 Spacing 0.07
REM Total runtime: 18252.7 s
REM Overall efficiency: 77.8 %
REM
REM 4LiFeSO4F.cell (79c870615ff1d88195b1fe3fe805288c)
REM
REM compiler GCC version 4.9.2
REM options -cpp -iprefix /lustre/shared/ucl/apps/gcc/4.9.2/bin/../lib/gcc/x86_64-unknown-linux-gnu/4.9.2/ -mtune=corei7 -march=x86-64 -g -Og
REM COMMAND_LINE
REM seed -510522627 -1482067174 342946993 -1989482093 -2028043434 -1515119605 1436078616 -2115287924 1931128341 -858363342 -948370520 -371945421
REM
REM S 3|1.8|5|6|7|30:31:32(qc=5)
REM O 2|1.5|12|13|15|20:21(qc=5)
REM Li 1|1.3|8|9|10|10U:20(qc=5)
REM Fe 3|2.2|2.0|1.0|8|9|10|40:41:32(qc=5)
REM F 2|1.6|10|12|13|20:21(qc=5)
REM 
CELL 1.54180    6.08729    6.08729   14.66840   90.00000   90.00000   91.47529
LATT -1
SFAC Li O  F  S  Fe 
Li     1 -0.0229790000000 -0.4273670000000 -0.3687260000000 1.0  -0.02
Li     1  0.0229790000000  0.4273670000000  0.1312740000000 1.0  -0.02
Li     1  0.4273670000000  0.0229790000000 -0.1312740000000 1.0  -0.02
Li     1 -0.4273670000000 -0.0229790000000  0.3687260000000 1.0  -0.02
O      2 -0.5016580000000 -0.1591470000000  0.2024520000000 1.0   0.07
O      2 -0.2484050000000 -0.4643520000000  0.1746100000000 1.0   0.01
O      2 -0.2142840000000 -0.2214980000000  0.3105140000000 1.0   0.06
O      2 -0.1213230000000 -0.0784350000000  0.1568020000000 1.0   0.08
O      2  0.5016580000000  0.1591470000000 -0.2975480000000 1.0   0.07
O      2  0.2484050000000  0.4643520000000 -0.3253900000000 1.0   0.01
O      2  0.2142840000000  0.2214980000000 -0.1894860000000 1.0   0.06
O      2  0.1213230000000  0.0784350000000 -0.3431980000000 1.0   0.08
O      2  0.1591470000000  0.5016580000000  0.2975480000000 1.0   0.07
O      2  0.4643520000000  0.2484050000000  0.3253900000000 1.0   0.01
O      2  0.2214980000000  0.2142840000000  0.1894860000000 1.0   0.06
O      2  0.0784350000000  0.1213230000000  0.3431980000000 1.0   0.08
O      2 -0.1591470000000 -0.5016580000000 -0.2024520000000 1.0   0.07
O      2 -0.4643520000000 -0.2484050000000 -0.1746100000000 1.0   0.01
O      2 -0.2214980000000 -0.2142840000000 -0.3105140000000 1.0   0.06
O      2 -0.0784350000000 -0.1213230000000 -0.1568020000000 1.0   0.08
F      3 -0.1790100000000  0.3563280000000 -0.4283120000000 1.0   0.13
F      3  0.1790100000000 -0.3563280000000  0.0716880000000 1.0   0.13
F      3 -0.3563280000000  0.1790100000000 -0.0716880000000 1.0   0.13
F      3  0.3563280000000 -0.1790100000000  0.4283120000000 1.0   0.13
S      4 -0.2708030000000 -0.2380770000000  0.2080570000000 1.0   0.02
S      4  0.2708030000000  0.2380770000000 -0.2919430000000 1.0   0.02
S      4  0.2380770000000  0.2708030000000  0.2919430000000 1.0   0.02
S      4 -0.2380770000000 -0.2708030000000 -0.2080570000000 1.0   0.02
Fe     5  0.2084670000000 -0.1019880000000  0.1433840000000 1.0   3.65
Fe     5 -0.2084670000000  0.1019880000000 -0.3566160000000 1.0   3.65
Fe     5  0.1019880000000 -0.2084670000000  0.3566160000000 1.0   3.65
Fe     5 -0.1019880000000  0.2084670000000 -0.1433840000000 1.0   3.65
END
