TITL 4LiFeSO4F-200818-154121-274be8 0.0096 430.011709 -1.51305939E+004 15.9980 16.2920 32 (C2) n - 1
REM
REM Run started: Wed, 19 Aug 2020 11:04:13 +0100 in /lustre/scratch/uccabz1/launch_tmp/launcher_2020-08-18-14-41-06-540232
REM CASTEP 20.1 from code version af48c487+ pr-geom-scf-spinfix Tue Jun 2 15:39:59 2020 +0100
REM Functional Perdew Burke Ernzerhof Relativity Koelling-Harmon Dispersion off
REM Cut-off 340.0000 eV Grid scale 1.7500 Gmax 16.5316 1/A FBSC none
REM MP grid 3 3 2 Offset 0.000 0.000 0.000 No. kpts 8 Spacing 0.07
REM Total runtime: 70041 s
REM Overall efficiency: 97.1 %
REM
REM 4LiFeSO4F.cell (79c870615ff1d88195b1fe3fe805288c)
REM
REM compiler GCC version 4.9.2
REM options -cpp -iprefix /lustre/shared/ucl/apps/gcc/4.9.2/bin/../lib/gcc/x86_64-unknown-linux-gnu/4.9.2/ -mtune=corei7 -march=x86-64 -g -Og
REM COMMAND_LINE
REM seed 1337491442 -829466661 -869753853 -438635388 2024323094 -1053789413 1612402252 1486221251 1269820829 767639240 1694453598 1314211566
REM
REM S 3|1.8|5|6|7|30:31:32(qc=5)
REM O 2|1.5|12|13|15|20:21(qc=5)
REM Li 1|1.3|8|9|10|10U:20(qc=5)
REM Fe 3|2.2|2.0|1.0|8|9|10|40:41:32(qc=5)
REM F 2|1.6|10|12|13|20:21(qc=5)
REM 
CELL 1.54180    7.04160    7.84974    9.32666  113.58326  110.75522   93.14970
LATT -1
SFAC Li O  F  S  Fe 
Li     1  0.4418990000000 -0.0498880000000  0.2958100000000 1.0  -0.02
Li     1 -0.1460890000000  0.3456980000000  0.2958100000000 1.0  -0.02
Li     1 -0.3915220000000  0.4841070000000 -0.3377130000000 1.0  -0.02
Li     1  0.0538090000000  0.1781800000000 -0.3377130000000 1.0  -0.02
O      2  0.4753610000000  0.2459550000000  0.4255450000000 1.0   0.01
O      2  0.2397120000000  0.4281650000000  0.3175800000000 1.0   0.05
O      2  0.2780550000000  0.1224390000000  0.1166530000000 1.0   0.05
O      2  0.5645590000000  0.4111350000000  0.2750240000000 1.0   0.04
O      2 -0.0498170000000  0.1795900000000  0.4255450000000 1.0   0.01
O      2  0.0778680000000 -0.1105850000000  0.3175800000000 1.0   0.05
O      2 -0.1614020000000 -0.0057860000000  0.1166530000000 1.0   0.05
O      2 -0.2895350000000 -0.1361110000000  0.2750240000000 1.0   0.04
O      2 -0.0274390000000 -0.2998790000000 -0.1626880000000 1.0   0.07
O      2  0.1417390000000 -0.5687930000000 -0.1950180000000 1.0   0.01
O      2  0.2437200000000 -0.3042520000000  0.0920410000000 1.0   0.05
O      2  0.3431350000000 -0.2536470000000 -0.1148970000000 1.0   0.06
O      2 -0.1352500000000  0.1371910000000 -0.1626880000000 1.0   0.07
O      2 -0.3367570000000  0.3737750000000 -0.1950180000000 1.0   0.01
O      2 -0.1516790000000  0.3962940000000  0.0920410000000 1.0   0.05
O      2 -0.4580320000000  0.1387500000000 -0.1148970000000 1.0   0.06
F      3 -0.0447570000000 -0.3884810000000  0.4309530000000 1.0   0.09
F      3  0.4757100000000 -0.1805660000000  0.4309530000000 1.0   0.09
F      3  0.1205440000000 -0.0348060000000 -0.3200210000000 1.0   0.10
F      3 -0.4405650000000 -0.2852150000000 -0.3200210000000 1.0   0.10
S      4  0.3880420000000  0.3022650000000  0.2833050000000 1.0   0.01
S      4 -0.1047370000000 -0.0189600000000  0.2833050000000 1.0   0.01
S      4  0.1773270000000 -0.3615420000000 -0.0978700000000 1.0   0.01
S      4 -0.2751970000000  0.2636720000000 -0.0978700000000 1.0   0.01
Fe     5  0.1210070000000 -0.3789930000000  0.2420150000000 1.0   3.71
Fe     5 -0.0259610000000 -0.0259610000000 -0.0519230000000 1.0   3.71
Fe     5  0.3653980000000 -0.1346020000000 -0.2692040000000 1.0   3.79
Fe     5 -0.2867470000000 -0.2867470000000 -0.5734940000000 1.0   3.73
END
