TITL 4LiFeSO4F-200804-064034-de93f5 0.0197 476.537333 -1.51315259E+004 16.0000 16.1420 32 (P21/c) n - 1
REM
REM Run started: Tue, 04 Aug 2020 11:59:13 +0100 in /lustre/scratch/uccabz1/launch_tmp/launcher_2020-08-04-05-40-31-654793
REM CASTEP 20.1 from code version af48c487+ pr-geom-scf-spinfix Tue Jun 2 15:39:59 2020 +0100
REM Functional Perdew Burke Ernzerhof Relativity Koelling-Harmon Dispersion off
REM Cut-off 340.0000 eV Grid scale 1.7500 Gmax 16.5316 1/A FBSC none
REM MP grid 3 2 2 Offset 0.000 0.000 0.000 No. kpts 4 Spacing 0.07
REM Total runtime: 19228 s
REM Overall efficiency: 74.2 %
REM
REM 4LiFeSO4F.cell (79c870615ff1d88195b1fe3fe805288c)
REM
REM compiler GCC version 4.9.2
REM options -cpp -iprefix /lustre/shared/ucl/apps/gcc/4.9.2/bin/../lib/gcc/x86_64-unknown-linux-gnu/4.9.2/ -mtune=corei7 -march=x86-64 -g -Og
REM COMMAND_LINE
REM seed 870309423 -1289433975 1243288302 159385742 561171165 1605192514 1667236862 1770424184 107360113 -136466904 -1143225937 -575620035
REM
REM S 3|1.8|5|6|7|30:31:32(qc=5)
REM O 2|1.5|12|13|15|20:21(qc=5)
REM Li 1|1.3|8|9|10|10U:20(qc=5)
REM Fe 3|2.2|2.0|1.0|8|9|10|40:41:32(qc=5)
REM F 2|1.6|10|12|13|20:21(qc=5)
REM 
CELL 1.54180    5.86643   10.45268    7.99465  103.57421   90.00000   90.00000
LATT -1
SFAC Li O  F  S  Fe 
Li     1  0.3941550000000  0.0141050000000  0.3520370000000 1.0  -0.02
Li     1 -0.1058450000000  0.4858950000000 -0.3520370000000 1.0  -0.02
Li     1 -0.3941550000000 -0.0141050000000 -0.3520370000000 1.0  -0.02
Li     1  0.1058450000000 -0.4858950000000  0.3520370000000 1.0  -0.02
O      2 -0.2377540000000  0.1318590000000 -0.2089310000000 1.0   0.01
O      2 -0.2636010000000  0.3356490000000  0.0223140000000 1.0   0.06
O      2 -0.4655460000000  0.3231000000000 -0.2508620000000 1.0   0.07
O      2 -0.0483030000000  0.3339480000000 -0.2419220000000 1.0   0.06
O      2  0.2622460000000  0.3681410000000  0.2089310000000 1.0   0.01
O      2  0.2363990000000  0.1643510000000 -0.0223140000000 1.0   0.06
O      2  0.0344540000000  0.1769000000000  0.2508620000000 1.0   0.07
O      2  0.4516970000000  0.1660520000000  0.2419220000000 1.0   0.06
O      2  0.2377540000000 -0.1318590000000  0.2089310000000 1.0   0.01
O      2  0.2636010000000 -0.3356490000000 -0.0223140000000 1.0   0.06
O      2  0.4655460000000 -0.3231000000000  0.2508620000000 1.0   0.07
O      2  0.0483030000000 -0.3339480000000  0.2419220000000 1.0   0.06
O      2 -0.2622460000000 -0.3681410000000 -0.2089310000000 1.0   0.01
O      2 -0.2363990000000 -0.1643510000000  0.0223140000000 1.0   0.06
O      2 -0.0344540000000 -0.1769000000000 -0.2508620000000 1.0   0.07
O      2 -0.4516970000000 -0.1660520000000 -0.2419220000000 1.0   0.06
F      3  0.1725720000000  0.5691610000000 -0.4137030000000 1.0   0.09
F      3 -0.3274280000000 -0.0691610000000  0.4137030000000 1.0   0.09
F      3 -0.1725720000000 -0.5691610000000  0.4137030000000 1.0   0.09
F      3  0.3274280000000  0.0691610000000 -0.4137030000000 1.0   0.09
S      4 -0.2587470000000  0.2772220000000 -0.1682300000000 1.0   0.01
S      4  0.2412530000000  0.2227780000000  0.1682300000000 1.0   0.01
S      4  0.2587470000000 -0.2772220000000  0.1682300000000 1.0   0.01
S      4 -0.2412530000000 -0.2227780000000 -0.1682300000000 1.0   0.01
Fe     5  0.2648590000000 -0.2764950000000 -0.2432000000000 1.0   3.73
Fe     5 -0.2351410000000 -0.2235050000000  0.2432000000000 1.0   3.73
Fe     5 -0.2648590000000  0.2764950000000  0.2432000000000 1.0   3.73
Fe     5  0.2351410000000  0.2235050000000 -0.2432000000000 1.0   3.73
END
