TITL 4LiFeSO4F-200818-002355-77472f 0.0681 458.493565 -1.51300249E+004 16.0000 16.3671 32 (Iba2) n - 1
REM
REM Run started: Tue, 18 Aug 2020 05:25:48 +0100 in /lustre/scratch/uccabz1/launch_tmp/launcher_2020-08-17-23-23-46-437150
REM CASTEP 20.1 from code version af48c487+ pr-geom-scf-spinfix Tue Jun 2 15:39:59 2020 +0100
REM Functional Perdew Burke Ernzerhof Relativity Koelling-Harmon Dispersion off
REM Cut-off 340.0000 eV Grid scale 1.7500 Gmax 16.5316 1/A FBSC none
REM MP grid 3 2 2 Offset 0.000 0.000 0.000 No. kpts 5 Spacing 0.07
REM Total runtime: 18231.2 s
REM Overall efficiency: 73.9 %
REM
REM 4LiFeSO4F.cell (79c870615ff1d88195b1fe3fe805288c)
REM
REM compiler GCC version 4.9.2
REM options -cpp -iprefix /lustre/shared/ucl/apps/gcc/4.9.2/bin/../lib/gcc/x86_64-unknown-linux-gnu/4.9.2/ -mtune=corei7 -march=x86-64 -g -Og
REM COMMAND_LINE
REM seed -2104094014 -321342345 -1829349602 -1305288488 439215734 796671756 -372915768 -1676716984 -39943528 1743461993 -830118913 -777168673
REM
REM S 3|1.8|5|6|7|30:31:32(qc=5)
REM O 2|1.5|12|13|15|20:21(qc=5)
REM Li 1|1.3|8|9|10|10U:20(qc=5)
REM Fe 3|2.2|2.0|1.0|8|9|10|40:41:32(qc=5)
REM F 2|1.6|10|12|13|20:21(qc=5)
REM 
CELL 1.54180    7.95145    8.73923    8.73923   63.27802   62.93969   62.93969
LATT -1
SFAC Li O  F  S  Fe 
Li     1  0.0475200000000  0.1668680000000 -0.0016050000000 1.0  -0.01
Li     1  0.2127840000000 -0.1668680000000  0.0016050000000 1.0  -0.01
Li     1  0.5475200000000 -0.0016050000000  0.1668680000000 1.0  -0.01
Li     1 -0.2872160000000  0.0016050000000 -0.1668680000000 1.0  -0.01
O      2 -0.0976420000000 -0.6054610000000 -0.1550420000000 1.0   0.03
O      2  0.0556660000000 -0.4993770000000 -0.0514190000000 1.0   0.05
O      2 -0.0232100000000 -0.3154090000000 -0.3378400000000 1.0   0.06
O      2  0.2498080000000 -0.6067260000000 -0.3121590000000 1.0   0.05
O      2  0.1418560000000  0.6054610000000  0.1550420000000 1.0   0.03
O      2  0.5048700000000  0.4993770000000  0.0514190000000 1.0   0.05
O      2  0.3235410000000  0.3154090000000  0.3378400000000 1.0   0.06
O      2  0.3309230000000  0.6067270000000  0.3121590000000 1.0   0.05
O      2 -0.5976420000000 -0.1550420000000 -0.6054610000000 1.0   0.03
O      2 -0.4443340000000 -0.0514190000000 -0.4993770000000 1.0   0.05
O      2 -0.5232100000000 -0.3378400000000 -0.3154090000000 1.0   0.06
O      2 -0.2501920000000 -0.3121590000000 -0.6067260000000 1.0   0.05
O      2 -0.3581440000000  0.1550420000000  0.6054610000000 1.0   0.03
O      2  0.0048700000000  0.0514190000000  0.4993770000000 1.0   0.05
O      2 -0.1764590000000  0.3378400000000  0.3154090000000 1.0   0.06
O      2 -0.1690770000000  0.3121590000000  0.6067270000000 1.0   0.05
F      3 -0.2650540000000 -0.1774070000000  0.0405060000000 1.0   0.06
F      3  0.5980450000000  0.1774070000000 -0.0405060000000 1.0   0.06
F      3  0.2349460000000  0.0405060000000 -0.1774070000000 1.0   0.06
F      3  0.0980450000000 -0.0405060000000  0.1774070000000 1.0   0.06
S      4  0.0460280000000 -0.5045960000000 -0.2162660000000 1.0   0.02
S      4  0.3251660000000  0.5045960000000  0.2162660000000 1.0   0.02
S      4 -0.4539720000000 -0.2162660000000 -0.5045960000000 1.0   0.02
S      4 -0.1748340000000  0.2162660000000  0.5045960000000 1.0   0.02
Fe     5  0.1335030000000 -0.1821640000000  0.4214390000000 1.0   3.73
Fe     5  0.3727770000000  0.1821640000000 -0.4214390000000 1.0   3.73
Fe     5 -0.3664970000000  0.4214390000000 -0.1821640000000 1.0   3.73
Fe     5 -0.1272230000000 -0.4214390000000  0.1821640000000 1.0   3.73
END
