TITL 4LiFeSO4F-200804-062933-d0f0cd -0.0213 407.307517 -1.51306744E+004 16.0000 16.2278 32 (P21) n - 1
REM
REM Run started: Tue, 04 Aug 2020 15:55:09 +0100 in /lustre/scratch/uccabz1/launch_tmp/launcher_2020-08-04-05-29-31-595415
REM CASTEP 20.1 from code version af48c487+ pr-geom-scf-spinfix Tue Jun 2 15:39:59 2020 +0100
REM Functional Perdew Burke Ernzerhof Relativity Koelling-Harmon Dispersion off
REM Cut-off 340.0000 eV Grid scale 1.7500 Gmax 16.5316 1/A FBSC none
REM MP grid 3 3 2 Offset 0.000 0.000 0.000 No. kpts 6 Spacing 0.07
REM Total runtime: 35086.5 s
REM Overall efficiency: 69.4444 %
REM
REM 4LiFeSO4F.cell (79c870615ff1d88195b1fe3fe805288c)
REM
REM compiler GCC version 4.9.2
REM options -cpp -iprefix /lustre/shared/ucl/apps/gcc/4.9.2/bin/../lib/gcc/x86_64-unknown-linux-gnu/4.9.2/ -mtune=corei7 -march=x86-64 -g -Og
REM COMMAND_LINE
REM seed 392644497 1701254669 963986060 842799012 1020223322 -1216080615 590338383 2108597129 -1828004992 -396682356 -364396347 378896930
REM
REM S 3|1.8|5|6|7|30:31:32(qc=5)
REM O 2|1.5|12|13|15|20:21(qc=5)
REM Li 1|1.3|8|9|10|10U:20(qc=5)
REM Fe 3|2.2|2.0|1.0|8|9|10|40:41:32(qc=5)
REM F 2|1.6|10|12|13|20:21(qc=5)
REM 
CELL 1.54180    5.83846    8.16108   10.63369  126.49752   90.00000   90.00000
LATT -1
SFAC Li O  F  S  Fe 
Li     1  0.1689910000000 -0.3783300000000  0.0341920000000 1.0  -0.02
Li     1 -0.3310090000000  0.3783300000000 -0.0341920000000 1.0  -0.02
Li     1  0.0772710000000  0.0887020000000  0.3006210000000 1.0  -0.03
Li     1 -0.4227290000000 -0.0887020000000 -0.3006210000000 1.0  -0.03
O      2 -0.2598840000000  0.6172060000000 -0.3230550000000 1.0   0.03
O      2 -0.2832140000000  0.3839980000000 -0.6098150000000 1.0   0.05
O      2 -0.4766670000000  0.2969440000000 -0.4487710000000 1.0   0.08
O      2 -0.0626670000000  0.2756640000000 -0.4774950000000 1.0   0.06
O      2  0.2401160000000 -0.6172060000000  0.3230550000000 1.0   0.03
O      2  0.2167860000000 -0.3839980000000  0.6098150000000 1.0   0.05
O      2  0.0233330000000 -0.2969440000000  0.4487710000000 1.0   0.08
O      2  0.4373330000000 -0.2756640000000  0.4774950000000 1.0   0.06
O      2 -0.1948370000000  0.1318300000000 -0.2430360000000 1.0   0.00
O      2  0.2172610000000  0.2049670000000 -0.2591040000000 1.0   0.04
O      2  0.1162290000000  0.0329140000000 -0.1411620000000 1.0   0.05
O      2  0.0087640000000  0.3920230000000 -0.0075840000000 1.0   0.01
O      2 -0.6948370000000 -0.1318300000000  0.2430360000000 1.0   0.00
O      2 -0.2827390000000 -0.2049670000000  0.2591040000000 1.0   0.04
O      2 -0.3837710000000 -0.0329140000000  0.1411620000000 1.0   0.05
O      2 -0.4912360000000 -0.3920230000000  0.0075840000000 1.0   0.01
F      3 -0.4259590000000  0.3841820000000  0.1368640000000 1.0   0.10
F      3  0.0740410000000 -0.3841820000000 -0.1368640000000 1.0   0.10
F      3 -0.4038330000000 -0.0132950000000 -0.0953970000000 1.0   0.09
F      3  0.0961670000000  0.0132950000000  0.0953970000000 1.0   0.09
S      4 -0.2720570000000  0.3983490000000 -0.4633680000000 1.0   0.02
S      4  0.2279430000000 -0.3983490000000  0.4633680000000 1.0   0.02
S      4  0.0368720000000  0.1882960000000 -0.1661090000000 1.0   0.01
S      4 -0.4631280000000 -0.1882960000000  0.1661090000000 1.0   0.01
Fe     5 -0.1043190000000 -0.1464770000000 -0.1056370000000 1.0   3.75
Fe     5  0.3956810000000  0.1464770000000  0.1056370000000 1.0   3.75
Fe     5  0.2250290000000  0.3934560000000 -0.3385960000000 1.0   3.74
Fe     5 -0.2749710000000 -0.3934560000000  0.3385960000000 1.0   3.74
END
