TITL 4LiFeSO4F-200804-084157-44ab83 0.0329 398.421016 -1.51314960E+004 16.0000 16.2219 32 (I-4) n - 1
REM
REM Run started: Tue, 04 Aug 2020 13:11:27 +0100 in /lustre/scratch/uccabz1/launch_tmp/launcher_2020-08-04-07-41-56-011210
REM CASTEP 20.1 from code version af48c487+ pr-geom-scf-spinfix Tue Jun 2 15:39:59 2020 +0100
REM Functional Perdew Burke Ernzerhof Relativity Koelling-Harmon Dispersion off
REM Cut-off 340.0000 eV Grid scale 1.7500 Gmax 16.5316 1/A FBSC none
REM MP grid 3 3 3 Offset 0.000 0.000 0.000 No. kpts 6 Spacing 0.07
REM Total runtime: 16324 s
REM Overall efficiency: 72.6 %
REM
REM 4LiFeSO4F.cell (79c870615ff1d88195b1fe3fe805288c)
REM
REM compiler GCC version 4.9.2
REM options -cpp -iprefix /lustre/shared/ucl/apps/gcc/4.9.2/bin/../lib/gcc/x86_64-unknown-linux-gnu/4.9.2/ -mtune=corei7 -march=x86-64 -g -Og
REM COMMAND_LINE
REM seed -91343324 1627432085 504102066 1328918681 1651272808 -605389673 1184118330 1403137086 -551604300 1159332247 1317123923 1450238085
REM
REM S 3|1.8|5|6|7|30:31:32(qc=5)
REM O 2|1.5|12|13|15|20:21(qc=5)
REM Li 1|1.3|8|9|10|10U:20(qc=5)
REM Fe 3|2.2|2.0|1.0|8|9|10|40:41:32(qc=5)
REM F 2|1.6|10|12|13|20:21(qc=5)
REM 
CELL 1.54180    8.08634    8.08634    8.08634  119.02715  104.91513  104.91513
LATT -1
SFAC Li O  F  S  Fe 
Li     1 -0.2429170000000  0.0374320000000  0.4809980000000 1.0  -0.02
Li     1  0.2429170000000 -0.2760860000000  0.2803480000000 1.0  -0.02
Li     1 -0.4435660000000 -0.4809980000000  0.2760860000000 1.0  -0.02
Li     1  0.4435660000000 -0.2803480000000 -0.0374320000000 1.0  -0.02
O      2 -0.1523230000000 -0.3466630000000 -0.0535460000000 1.0   0.07
O      2  0.0176590000000 -0.1931380000000  0.3207170000000 1.0   0.04
O      2 -0.2923890000000 -0.5188100000000  0.0966410000000 1.0   0.04
O      2 -0.2908090000000 -0.1869570000000  0.1816030000000 1.0   0.02
O      2  0.1523230000000  0.0987760000000 -0.1943410000000 1.0   0.07
O      2 -0.0176590000000  0.3030580000000 -0.2107970000000 1.0   0.04
O      2  0.2923890000000  0.3890300000000 -0.2264210000000 1.0   0.04
O      2  0.2908090000000  0.4724120000000  0.1038520000000 1.0   0.02
O      2 -0.2931170000000  0.0535460000000 -0.0987760000000 1.0   0.07
O      2 -0.5138550000000 -0.3207170000000 -0.3030580000000 1.0   0.04
O      2 -0.6154510000000 -0.0966410000000 -0.3890300000000 1.0   0.04
O      2 -0.3685600000000 -0.1816030000000 -0.4724120000000 1.0   0.02
O      2  0.2931170000000  0.1943410000000  0.3466630000000 1.0   0.07
O      2  0.5138550000000  0.2107970000000  0.1931380000000 1.0   0.04
O      2  0.6154510000000  0.2264210000000  0.5188100000000 1.0   0.04
O      2  0.3685600000000 -0.1038520000000  0.1869570000000 1.0   0.02
F      3 -0.1650710000000 -0.4162830000000  0.4994440000000 1.0   0.10
F      3  0.1650710000000 -0.3354850000000 -0.2512110000000 1.0   0.10
F      3  0.0842730000000 -0.4994440000000  0.3354850000000 1.0   0.10
F      3 -0.0842730000000  0.2512110000000  0.4162830000000 1.0   0.10
S      4 -0.1793130000000 -0.3116050000000  0.1353000000000 1.0   0.02
S      4  0.1793130000000  0.3146130000000 -0.1322920000000 1.0   0.02
S      4 -0.4469040000000 -0.1353000000000 -0.3146130000000 1.0   0.02
S      4  0.4469040000000  0.1322920000000  0.3116050000000 1.0   0.02
Fe     5 -0.1102100000000  0.4862720000000 -0.3008980000000 1.0   3.73
Fe     5  0.1102100000000 -0.1906880000000 -0.4035180000000 1.0   3.73
Fe     5 -0.2128300000000  0.3008980000000  0.1906880000000 1.0   3.73
Fe     5  0.2128300000000  0.4035180000000 -0.4862720000000 1.0   3.73
END
