TITL 4LiFeSO4F-200804-094143-51abcb -0.0011 487.841240 -1.51297116E+004 16.0000 16.3160 32 (Pc) n - 1
REM
REM Run started: Tue, 04 Aug 2020 15:08:40 +0100 in /lustre/scratch/uccabz1/launch_tmp/launcher_2020-08-04-08-41-41-024328
REM CASTEP 20.1 from code version af48c487+ pr-geom-scf-spinfix Tue Jun 2 15:39:59 2020 +0100
REM Functional Perdew Burke Ernzerhof Relativity Koelling-Harmon Dispersion off
REM Cut-off 340.0000 eV Grid scale 1.7500 Gmax 16.5316 1/A FBSC none
REM MP grid 3 2 2 Offset 0.000 0.000 0.000 No. kpts 3 Spacing 0.07
REM Total runtime: 20142.5 s
REM Overall efficiency: 74.3636 %
REM
REM 4LiFeSO4F.cell (79c870615ff1d88195b1fe3fe805288c)
REM
REM compiler GCC version 4.9.2
REM options -cpp -iprefix /lustre/shared/ucl/apps/gcc/4.9.2/bin/../lib/gcc/x86_64-unknown-linux-gnu/4.9.2/ -mtune=corei7 -march=x86-64 -g -Og
REM COMMAND_LINE
REM seed -26713581 1029894164 -876489848 -369144104 -670275580 -623676647 1846020600 1061145503 420744422 -1018862517 1353428576 -101361229
REM
REM S 3|1.8|5|6|7|30:31:32(qc=5)
REM O 2|1.5|12|13|15|20:21(qc=5)
REM Li 1|1.3|8|9|10|10U:20(qc=5)
REM Fe 3|2.2|2.0|1.0|8|9|10|40:41:32(qc=5)
REM F 2|1.6|10|12|13|20:21(qc=5)
REM 
CELL 1.54180    8.12515    7.71863   10.13937   90.00000  129.89889   90.00000
LATT -1
SFAC Li O  F  S  Fe 
Li     1  0.0317680000000 -0.1529610000000 -0.0207220000000 1.0  -0.03
Li     1  0.0317680000000  0.1529610000000 -0.5207220000000 1.0  -0.03
Li     1 -0.2129790000000 -0.2656750000000  0.4533250000000 1.0  -0.01
Li     1 -0.2129790000000  0.2656750000000 -0.0466750000000 1.0  -0.01
O      2  0.1558440000000  0.0622930000000  0.1498160000000 1.0   0.05
O      2  0.1059910000000 -0.2209770000000  0.2209150000000 1.0   0.02
O      2 -0.0372060000000  0.0384520000000  0.2644520000000 1.0   0.01
O      2  0.3490080000000 -0.0145280000000  0.4601820000000 1.0   0.08
O      2  0.1558440000000 -0.0622930000000 -0.3501840000000 1.0   0.05
O      2  0.1059910000000  0.2209770000000 -0.2790850000000 1.0   0.02
O      2 -0.0372060000000 -0.0384520000000 -0.2355480000000 1.0   0.01
O      2  0.3490080000000  0.0145280000000 -0.0398180000000 1.0   0.08
O      2 -0.0616410000000 -0.3720110000000 -0.1055850000000 1.0   0.01
O      2 -0.2774570000000 -0.6252750000000 -0.2538320000000 1.0   0.08
O      2 -0.2098700000000 -0.4242040000000 -0.4051920000000 1.0   0.02
O      2 -0.4504650000000 -0.3399590000000 -0.3504870000000 1.0   0.10
O      2 -0.0616410000000  0.3720110000000  0.3944150000000 1.0   0.01
O      2 -0.2774570000000  0.6252750000000  0.2461680000000 1.0   0.08
O      2 -0.2098700000000  0.4242040000000  0.0948080000000 1.0   0.02
O      2 -0.4504650000000  0.3399590000000  0.1495130000000 1.0   0.10
F      3 -0.3770950000000  0.0622840000000 -0.2035810000000 1.0   0.09
F      3 -0.3770950000000 -0.0622840000000  0.2964190000000 1.0   0.09
F      3  0.4663150000000 -0.2954690000000 -0.1221090000000 1.0   0.16
F      3  0.4663150000000  0.2954690000000  0.3778910000000 1.0   0.16
S      4  0.1365070000000 -0.0382280000000  0.2720850000000 1.0   0.01
S      4  0.1365070000000  0.0382280000000 -0.2279150000000 1.0   0.01
S      4 -0.2438390000000 -0.4343130000000 -0.2790040000000 1.0   0.01
S      4 -0.2438390000000  0.4343130000000  0.2209960000000 1.0   0.01
Fe     5 -0.4487240000000 -0.1873620000000  0.0825450000000 1.0   3.66
Fe     5 -0.4487240000000  0.1873620000000 -0.4174550000000 1.0   3.66
Fe     5  0.4244650000000  0.1570990000000  0.1902820000000 1.0   3.75
Fe     5  0.4244650000000 -0.1570990000000 -0.3097180000000 1.0   3.75
END
