TITL 4LiFeSO4F-200818-073224-365254 0.0562 461.816540 -1.51303538E+004 16.0032 16.2819 32 (P-1) n - 1
REM
REM Run started: Tue, 18 Aug 2020 21:56:01 +0100 in /lustre/scratch/uccabz1/launch_tmp/launcher_2020-08-18-06-32-09-204862
REM CASTEP 20.1 from code version af48c487+ pr-geom-scf-spinfix Tue Jun 2 15:39:59 2020 +0100
REM Functional Perdew Burke Ernzerhof Relativity Koelling-Harmon Dispersion off
REM Cut-off 340.0000 eV Grid scale 1.7500 Gmax 16.5316 1/A FBSC none
REM MP grid 4 2 2 Offset 0.000 0.000 0.000 No. kpts 8 Spacing 0.07
REM Total runtime: 52063.3 s
REM Overall efficiency: 97.4 %
REM
REM 4LiFeSO4F.cell (79c870615ff1d88195b1fe3fe805288c)
REM
REM compiler GCC version 4.9.2
REM options -cpp -iprefix /lustre/shared/ucl/apps/gcc/4.9.2/bin/../lib/gcc/x86_64-unknown-linux-gnu/4.9.2/ -mtune=corei7 -march=x86-64 -g -Og
REM COMMAND_LINE
REM seed -1063990075 -1855166742 74680800 906626195 587705996 -530974650 -815670276 317846167 1434222758 1653735735 279382075 753988160
REM
REM S 3|1.8|5|6|7|30:31:32(qc=5)
REM O 2|1.5|12|13|15|20:21(qc=5)
REM Li 1|1.3|8|9|10|10U:20(qc=5)
REM Fe 3|2.2|2.0|1.0|8|9|10|40:41:32(qc=5)
REM F 2|1.6|10|12|13|20:21(qc=5)
REM 
CELL 1.54180    4.99395    8.71733   12.61116  107.42495  100.36537  111.24701
LATT -1
SFAC Li O  F  S  Fe 
Li     1 -0.1279410000000 -0.2788850000000  0.0325140000000 1.0  -0.00
Li     1  0.1279410000000  0.2788850000000 -0.0325140000000 1.0  -0.00
Li     1 -0.3743890000000 -0.1492920000000 -0.1940460000000 1.0  -0.01
Li     1  0.3743890000000  0.1492920000000  0.1940460000000 1.0  -0.01
O      2  0.0065130000000  0.3370450000000  0.1129150000000 1.0   0.05
O      2 -0.5569470000000  0.2092460000000  0.0446050000000 1.0   0.00
O      2 -0.2418660000000  0.5201440000000  0.0719590000000 1.0   0.00
O      2 -0.2616950000000  0.4367390000000  0.2422370000000 1.0   0.08
O      2 -0.0065130000000 -0.3370450000000 -0.1129150000000 1.0   0.05
O      2  0.5569470000000 -0.2092460000000 -0.0446050000000 1.0   0.00
O      2  0.2418660000000 -0.5201440000000 -0.0719590000000 1.0   0.00
O      2  0.2616950000000 -0.4367390000000 -0.2422370000000 1.0   0.08
O      2  0.6628480000000  0.0386040000000  0.3532900000000 1.0   0.07
O      2  0.4197810000000 -0.2902730000000  0.2379010000000 1.0   0.06
O      2  0.2275960000000 -0.0960380000000  0.1788370000000 1.0   0.02
O      2  0.1614800000000 -0.1532930000000  0.3545550000000 1.0   0.06
O      2 -0.6628480000000 -0.0386040000000 -0.3532900000000 1.0   0.07
O      2 -0.4197810000000  0.2902730000000 -0.2379010000000 1.0   0.06
O      2 -0.2275960000000  0.0960380000000 -0.1788370000000 1.0   0.02
O      2 -0.1614800000000  0.1532930000000 -0.3545550000000 1.0   0.06
F      3 -0.6436900000000  0.3178690000000 -0.4427220000000 1.0   0.15
F      3  0.6436900000000 -0.3178690000000  0.4427220000000 1.0   0.15
F      3 -0.2466040000000 -0.2790260000000 -0.3010770000000 1.0   0.16
F      3  0.2466040000000  0.2790260000000  0.3010770000000 1.0   0.16
S      4 -0.2646350000000  0.3777160000000  0.1140700000000 1.0   0.00
S      4  0.2646350000000 -0.3777160000000 -0.1140700000000 1.0   0.00
S      4  0.3648690000000 -0.1283270000000  0.2805050000000 1.0   0.02
S      4 -0.3648690000000  0.1283270000000 -0.2805050000000 1.0   0.02
Fe     5  0.9588070000000  0.1240480000000  0.5047440000000 1.0   3.44
Fe     5 -0.9588070000000 -0.1240480000000 -0.5047440000000 1.0   3.44
Fe     5 -0.3859810000000 -0.4953670000000 -0.2798110000000 1.0   3.89
Fe     5  0.3859810000000  0.4953670000000  0.2798110000000 1.0   3.89
END
