TITL 4LiFeSO4F-200818-070215-1bc923 -0.0532 450.066319 -1.51307718E+004 16.0000 16.3675 32 (Pna21) n - 1
REM
REM Run started: Tue, 18 Aug 2020 07:45:18 +0100 in /lustre/scratch/uccabz1/launch_tmp/launcher_2020-08-18-06-02-07-972134
REM CASTEP 20.1 from code version af48c487+ pr-geom-scf-spinfix Tue Jun 2 15:39:59 2020 +0100
REM Functional Perdew Burke Ernzerhof Relativity Koelling-Harmon Dispersion off
REM Cut-off 340.0000 eV Grid scale 1.7500 Gmax 16.5316 1/A FBSC none
REM MP grid 3 2 2 Offset 0.000 0.000 0.000 No. kpts 2 Spacing 0.07
REM Total runtime: 2723.26 s
REM Overall efficiency: 75.4286 %
REM
REM 4LiFeSO4F.cell (79c870615ff1d88195b1fe3fe805288c)
REM
REM compiler GCC version 4.9.2
REM options -cpp -iprefix /lustre/shared/ucl/apps/gcc/4.9.2/bin/../lib/gcc/x86_64-unknown-linux-gnu/4.9.2/ -mtune=corei7 -march=x86-64 -g -Og
REM COMMAND_LINE
REM seed 1304923444 696446361 -1129782678 -1570818 1912305597 -1062425230 1929564856 1380195900 658388165 -1323804712 -213468339 -1790542048
REM
REM S 3|1.8|5|6|7|30:31:32(qc=5)
REM O 2|1.5|12|13|15|20:21(qc=5)
REM Li 1|1.3|8|9|10|10U:20(qc=5)
REM Fe 3|2.2|2.0|1.0|8|9|10|40:41:32(qc=5)
REM F 2|1.6|10|12|13|20:21(qc=5)
REM 
CELL 1.54180    4.95284    8.89315   10.21801   90.00000   90.00000   90.00000
LATT -1
SFAC Li O  F  S  Fe 
Li     1  0.2721610000000 -0.4080590000000  0.2493070000000 1.0  -0.02
Li     1 -0.2721610000000  0.4080590000000 -0.2506930000000 1.0  -0.02
Li     1  0.2278390000000  0.0919410000000  0.2493070000000 1.0  -0.02
Li     1 -0.2278390000000 -0.0919410000000 -0.2506930000000 1.0  -0.02
O      2  0.1490910000000  0.1606480000000 -0.3458610000000 1.0   0.04
O      2  0.5244130000000 -0.0119620000000 -0.4117140000000 1.0   0.05
O      2  0.5160950000000  0.0861010000000 -0.1937680000000 1.0   0.04
O      2  0.6078760000000  0.2576160000000 -0.3813990000000 1.0   0.03
O      2 -0.1490910000000 -0.1606480000000  0.1541390000000 1.0   0.04
O      2 -0.5244130000000  0.0119620000000  0.0882860000000 1.0   0.05
O      2 -0.5160950000000 -0.0861010000000  0.3062320000000 1.0   0.04
O      2 -0.6078760000000 -0.2576160000000  0.1186010000000 1.0   0.03
O      2  0.3509090000000 -0.3393520000000 -0.3458610000000 1.0   0.04
O      2 -0.0244130000000 -0.5119620000000 -0.4117140000000 1.0   0.05
O      2 -0.0160950000000 -0.4138990000000 -0.1937680000000 1.0   0.04
O      2 -0.1078760000000 -0.2423840000000 -0.3813990000000 1.0   0.03
O      2 -0.3509090000000  0.3393520000000  0.1541390000000 1.0   0.04
O      2  0.0244130000000  0.5119620000000  0.0882860000000 1.0   0.05
O      2  0.0160950000000  0.4138990000000  0.3062320000000 1.0   0.04
O      2  0.1078760000000  0.2423840000000  0.1186010000000 1.0   0.03
F      3  0.4869050000000 -0.3801700000000  0.3869380000000 1.0   0.12
F      3 -0.4869050000000  0.3801700000000 -0.1130620000000 1.0   0.12
F      3  0.0130950000000  0.1198300000000  0.3869380000000 1.0   0.12
F      3 -0.0130950000000 -0.1198300000000 -0.1130620000000 1.0   0.12
S      4  0.4423240000000  0.1256130000000 -0.3335640000000 1.0   0.02
S      4 -0.4423240000000 -0.1256130000000  0.1664360000000 1.0   0.02
S      4  0.0576760000000 -0.3743870000000 -0.3335640000000 1.0   0.02
S      4 -0.0576760000000  0.3743870000000  0.1664360000000 1.0   0.02
Fe     5  0.0350730000000 -0.2910200000000 -0.0074240000000 1.0   3.72
Fe     5 -0.0350730000000  0.2910200000000  0.4925760000000 1.0   3.72
Fe     5  0.4649270000000  0.2089800000000 -0.0074240000000 1.0   3.72
Fe     5 -0.4649270000000 -0.2089800000000  0.4925760000000 1.0   3.72
END
