TITL 4LiFeSO4F-200804-065512-ef25c3 0.0992 478.041723 -1.51285459E+004 15.9926 16.2569 32 (Pm) n - 1
REM
REM Run started: Tue, 04 Aug 2020 21:49:26 +0100 in /lustre/scratch/uccabz1/launch_tmp/launcher_2020-08-04-05-55-00-285116
REM CASTEP 20.1 from code version af48c487+ pr-geom-scf-spinfix Tue Jun 2 15:39:59 2020 +0100
REM Functional Perdew Burke Ernzerhof Relativity Koelling-Harmon Dispersion off
REM Cut-off 340.0000 eV Grid scale 1.7500 Gmax 16.5316 1/A FBSC none
REM MP grid 3 3 2 Offset 0.000 0.000 0.000 No. kpts 5 Spacing 0.07
REM Total runtime: 56900.3 s
REM Overall efficiency: 74.6667 %
REM
REM 4LiFeSO4F.cell (79c870615ff1d88195b1fe3fe805288c)
REM
REM compiler GCC version 4.9.2
REM options -cpp -iprefix /lustre/shared/ucl/apps/gcc/4.9.2/bin/../lib/gcc/x86_64-unknown-linux-gnu/4.9.2/ -mtune=corei7 -march=x86-64 -g -Og
REM COMMAND_LINE
REM seed 1966034573 -1439306917 -1482477196 1578343267 1038223992 1433604186 1540358643 1344202436 1007304692 -1423446894 -314268976 -577074404
REM
REM S 3|1.8|5|6|7|30:31:32(qc=5)
REM O 2|1.5|12|13|15|20:21(qc=5)
REM Li 1|1.3|8|9|10|10U:20(qc=5)
REM Fe 3|2.2|2.0|1.0|8|9|10|40:41:32(qc=5)
REM F 2|1.6|10|12|13|20:21(qc=5)
REM 
CELL 1.54180    5.86009    7.29350   11.41504   90.00000   90.00000  101.52865
LATT -1
SFAC Li O  F  S  Fe 
Li     1 -0.2670150000000 -0.2086860000000 -0.3968580000000 1.0  -0.01
Li     1 -0.2670150000000 -0.2086860000000  0.3968580000000 1.0  -0.01
Li     1 -0.2931270000000  0.3857640000000  0.5000000000000 1.0   0.00
Li     1  0.0171180000000 -0.2630000000000  0.0000000000000 1.0  -0.03
O      2  0.4949200000000 -0.0372510000000  0.1238840000000 1.0   0.10
O      2  0.2172230000000 -0.1069460000000  0.2810560000000 1.0   0.04
O      2  0.5375230000000 -0.2792950000000  0.2692720000000 1.0   0.01
O      2  0.2208910000000 -0.3396450000000  0.1238410000000 1.0   0.05
O      2  0.4949200000000 -0.0372510000000 -0.1238840000000 1.0   0.10
O      2  0.2172230000000 -0.1069460000000 -0.2810560000000 1.0   0.04
O      2  0.5375230000000 -0.2792950000000 -0.2692720000000 1.0   0.01
O      2  0.2208910000000 -0.3396450000000 -0.1238410000000 1.0   0.05
O      2 -0.1619030000000  0.2363640000000  0.1217030000000 1.0   0.11
O      2 -0.3916270000000  0.2305320000000  0.3131420000000 1.0   0.07
O      2 -0.5313290000000  0.3551240000000  0.1287530000000 1.0   0.13
O      2 -0.1619030000000  0.2363640000000 -0.1217030000000 1.0   0.11
O      2 -0.3916270000000  0.2305320000000 -0.3131420000000 1.0   0.07
O      2 -0.5313290000000  0.3551240000000 -0.1287530000000 1.0   0.13
O      2 -0.3078930000000 -0.2910190000000  0.0000000000000 1.0   0.74
O      2 -0.6104080000000 -0.7325360000000 -0.5000000000000 1.0   0.18
F      3  0.0874140000000 -0.0165880000000  0.5000000000000 1.0   0.04
F      3 -0.2043120000000 -0.3734270000000  0.5000000000000 1.0   0.00
F      3 -0.4246990000000 -0.0572920000000 -0.5000000000000 1.0   0.09
F      3  0.0484640000000 -0.0089730000000  0.0000000000000 1.0   0.24
S      4  0.3746230000000 -0.1943490000000  0.1989430000000 1.0   0.01
S      4  0.3746230000000 -0.1943490000000 -0.1989430000000 1.0   0.01
S      4 -0.3026950000000  0.3488780000000  0.1953220000000 1.0   0.01
S      4 -0.3026950000000  0.3488780000000 -0.1953220000000 1.0   0.01
Fe     5  0.3456330000000  0.0895950000000  0.3901180000000 1.0   2.82
Fe     5  0.3456330000000  0.0895950000000 -0.3901180000000 1.0   2.82
Fe     5  0.4348840000000  0.5290990000000  0.0000000000000 1.0   3.92
Fe     5 -0.2595820000000  0.0156890000000  0.0000000000000 1.0   4.07
END
