TITL 4LiFeSO4F-200818-071248-49508a 0.0448 480.581466 -1.51301860E+004 16.0006 16.2973 32 (Cm) n - 1
REM
REM Run started: Wed, 19 Aug 2020 01:16:17 +0100 in /lustre/scratch/uccabz1/launch_tmp/launcher_2020-08-18-06-12-40-472929
REM CASTEP 20.1 from code version af48c487+ pr-geom-scf-spinfix Tue Jun 2 15:39:59 2020 +0100
REM Functional Perdew Burke Ernzerhof Relativity Koelling-Harmon Dispersion off
REM Cut-off 340.0000 eV Grid scale 1.7500 Gmax 16.5316 1/A FBSC none
REM MP grid 3 2 2 Offset 0.000 0.000 0.000 No. kpts 6 Spacing 0.07
REM Total runtime: 65194.2 s
REM Overall efficiency: 79.5833 %
REM
REM 4LiFeSO4F.cell (79c870615ff1d88195b1fe3fe805288c)
REM
REM compiler GCC version 4.9.2
REM options -cpp -iprefix /lustre/shared/ucl/apps/gcc/4.9.2/bin/../lib/gcc/x86_64-unknown-linux-gnu/4.9.2/ -mtune=corei7 -march=x86-64 -g -Og
REM COMMAND_LINE
REM seed -635946292 324166577 377876175 1649023912 -679621025 353346790 -545253438 1625973228 -1896963415 -939310649 -1013496474 -1420590035
REM
REM S 3|1.8|5|6|7|30:31:32(qc=5)
REM O 2|1.5|12|13|15|20:21(qc=5)
REM Li 1|1.3|8|9|10|10U:20(qc=5)
REM Fe 3|2.2|2.0|1.0|8|9|10|40:41:32(qc=5)
REM F 2|1.6|10|12|13|20:21(qc=5)
REM 
CELL 1.54180    7.31768    8.38797    9.87800  118.33983  115.33157   82.22303
LATT -1
SFAC Li O  F  S  Fe 
Li     1  0.2790210000000  0.5315900000000  0.6378530000000 1.0  -0.03
Li     1 -0.3588310000000 -0.1062620000000 -0.6378530000000 1.0  -0.03
Li     1 -0.0969030000000  0.3558700000000 -0.0000000000000 1.0  -0.00
Li     1  0.4494550000000 -0.4019860000000 -0.0000000000000 1.0  -0.00
O      2 -0.3472060000000 -0.5147170000000 -0.6467780000000 1.0   0.09
O      2 -0.2693600000000 -0.3551730000000 -0.7728280000000 1.0   0.01
O      2 -0.1385770000000 -0.6531920000000 -0.8083150000000 1.0   0.01
O      2  0.0020750000000 -0.3793270000000 -0.5272750000000 1.0   0.05
O      2  0.2995730000000  0.1320610000000  0.6467780000000 1.0   0.09
O      2  0.5034670000000  0.4176550000000  0.7728280000000 1.0   0.01
O      2  0.6697380000000  0.1551240000000  0.8083150000000 1.0   0.01
O      2  0.5293500000000  0.1479480000000  0.5272750000000 1.0   0.05
O      2 -0.1733600000000  0.6348930000000  0.7367460000000 1.0   0.09
O      2 -0.0478610000000  0.4025030000000  0.8359320000000 1.0   0.01
O      2  0.1807090000000  0.5730430000000  0.8129840000000 1.0   0.01
O      2 -0.0800440000000  0.3406420000000  0.5584790000000 1.0   0.10
O      2 -0.9101060000000 -0.1018530000000 -0.7367460000000 1.0   0.09
O      2 -0.8837930000000 -0.4334280000000 -0.8359320000000 1.0   0.01
O      2 -0.6322760000000 -0.2399410000000 -0.8129840000000 1.0   0.01
O      2 -0.6385220000000 -0.2178370000000 -0.5584790000000 1.0   0.10
F      3  0.4080280000000 -0.2442340000000 -0.2949730000000 1.0   0.10
F      3  0.7030010000000  0.0507390000000  0.2949730000000 1.0   0.10
F      3  0.3595920000000  0.4194140000000  0.4391400000000 1.0   0.14
F      3 -0.0795480000000 -0.0197270000000 -0.4391400000000 1.0   0.14
S      4 -0.1838870000000 -0.4780070000000 -0.6929750000000 1.0   0.01
S      4  0.5090880000000  0.2149680000000  0.6929750000000 1.0   0.01
S      4 -0.0263170000000  0.4893690000000  0.7453020000000 1.0   0.01
S      4 -0.7716190000000 -0.2559330000000 -0.7453020000000 1.0   0.01
Fe     5  0.1761080000000 -0.1358820000000 -0.4228750000000 1.0   3.67
Fe     5  0.5989830000000  0.2869930000000  0.4228750000000 1.0   3.67
Fe     5 -0.4282370000000 -0.3648790000000 -0.4430880000000 1.0   3.72
Fe     5  0.0148520000000  0.0782090000000  0.4430880000000 1.0   3.72
END
