TITL 4LiFeSO4F-200818-133520-6c92ef 0.0059 460.248703 -1.51288790E+004 16.0000 16.2473 32 (Amm2) n - 1
REM
REM Run started: Wed, 19 Aug 2020 06:48:03 +0100 in /lustre/scratch/uccabz1/launch_tmp/launcher_2020-08-18-12-35-16-886693
REM CASTEP 20.1 from code version af48c487+ pr-geom-scf-spinfix Tue Jun 2 15:39:59 2020 +0100
REM Functional Perdew Burke Ernzerhof Relativity Koelling-Harmon Dispersion off
REM Cut-off 340.0000 eV Grid scale 1.7500 Gmax 16.5316 1/A FBSC none
REM MP grid 3 3 2 Offset 0.000 0.000 0.000 No. kpts 4 Spacing 0.07
REM Total runtime: 67619.3 s
REM Overall efficiency: 73.6667 %
REM
REM 4LiFeSO4F.cell (79c870615ff1d88195b1fe3fe805288c)
REM
REM compiler GCC version 4.9.2
REM options -cpp -iprefix /lustre/shared/ucl/apps/gcc/4.9.2/bin/../lib/gcc/x86_64-unknown-linux-gnu/4.9.2/ -mtune=corei7 -march=x86-64 -g -Og
REM COMMAND_LINE
REM seed -2093468476 1209306065 -796131665 -244392241 -470592067 -705932337 1192102335 -1075165537 -746137245 -1046733077 -370607347 -559799504
REM
REM S 3|1.8|5|6|7|30:31:32(qc=5)
REM O 2|1.5|12|13|15|20:21(qc=5)
REM Li 1|1.3|8|9|10|10U:20(qc=5)
REM Fe 3|2.2|2.0|1.0|8|9|10|40:41:32(qc=5)
REM F 2|1.6|10|12|13|20:21(qc=5)
REM 
CELL 1.54180    6.35368    6.35368   11.41528   90.00000   90.00000   92.86793
LATT -1
SFAC Li O  F  S  Fe 
Li     1 -0.1843410000000 -0.4921720000000  0.5000000000000 1.0  -0.03
Li     1 -0.4921720000000 -0.1843410000000  0.5000000000000 1.0  -0.03
Li     1  0.3453280000000  0.3453280000000  0.3476380000000 1.0  -0.01
Li     1  0.3453280000000  0.3453280000000 -0.3476380000000 1.0  -0.01
O      2  0.3649280000000 -0.3271470000000  0.3624950000000 1.0   0.01
O      2  0.4800820000000 -0.2255150000000  0.1618730000000 1.0   0.07
O      2  0.3515840000000  0.0369350000000  0.3036520000000 1.0   0.02
O      2  0.1095280000000 -0.2285450000000  0.2114910000000 1.0   0.09
O      2 -0.3271470000000  0.3649280000000 -0.3624950000000 1.0   0.01
O      2 -0.2255150000000  0.4800820000000 -0.1618730000000 1.0   0.07
O      2  0.0369350000000  0.3515840000000 -0.3036520000000 1.0   0.02
O      2 -0.2285450000000  0.1095280000000 -0.2114910000000 1.0   0.09
O      2 -0.3271470000000  0.3649280000000  0.3624950000000 1.0   0.01
O      2 -0.2255150000000  0.4800820000000  0.1618730000000 1.0   0.07
O      2  0.0369350000000  0.3515840000000  0.3036520000000 1.0   0.02
O      2 -0.2285450000000  0.1095280000000  0.2114910000000 1.0   0.09
O      2  0.3649280000000 -0.3271470000000 -0.3624950000000 1.0   0.01
O      2  0.4800820000000 -0.2255150000000 -0.1618730000000 1.0   0.07
O      2  0.3515840000000  0.0369350000000 -0.3036520000000 1.0   0.02
O      2  0.1095280000000 -0.2285450000000 -0.2114910000000 1.0   0.09
F      3 -0.1787980000000 -0.1787980000000 -0.5000000000000 1.0   0.04
F      3  0.2503670000000  0.2503670000000 -0.5000000000000 1.0   0.07
F      3  0.3437970000000  0.3437970000000  0.0000000000000 1.0   0.24
F      3 -0.2226270000000 -0.2226270000000  0.0000000000000 1.0   0.13
S      4  0.3264870000000 -0.1819980000000  0.2607270000000 1.0   0.01
S      4 -0.1819980000000  0.3264870000000 -0.2607270000000 1.0   0.01
S      4 -0.1819980000000  0.3264870000000  0.2607270000000 1.0   0.01
S      4  0.3264870000000 -0.1819980000000 -0.2607270000000 1.0   0.01
Fe     5 -0.1834260000000 -0.1834260000000  0.1731820000000 1.0   3.77
Fe     5 -0.1834260000000 -0.1834260000000 -0.1731820000000 1.0   3.77
Fe     5  0.0393260000000  0.0393260000000 -0.5000000000000 1.0   3.47
Fe     5  0.5465910000000  0.5465910000000  0.0000000000000 1.0   3.79
END
