TITL 4LiFeSO4F-200818-055006-58f93f 0.0974 461.029044 -1.51312825E+004 16.0000 16.2834 32 (Pc) n - 1
REM
REM Run started: Tue, 18 Aug 2020 12:28:59 +0100 in /lustre/scratch/uccabz1/launch_tmp/launcher_2020-08-18-04-50-04-042065
REM CASTEP 20.1 from code version af48c487+ pr-geom-scf-spinfix Tue Jun 2 15:39:59 2020 +0100
REM Functional Perdew Burke Ernzerhof Relativity Koelling-Harmon Dispersion off
REM Cut-off 340.0000 eV Grid scale 1.7500 Gmax 16.5316 1/A FBSC none
REM MP grid 3 2 2 Offset 0.000 0.000 0.000 No. kpts 3 Spacing 0.07
REM Total runtime: 27161.1 s
REM Overall efficiency: 73.4167 %
REM
REM 4LiFeSO4F.cell (79c870615ff1d88195b1fe3fe805288c)
REM
REM compiler GCC version 4.9.2
REM options -cpp -iprefix /lustre/shared/ucl/apps/gcc/4.9.2/bin/../lib/gcc/x86_64-unknown-linux-gnu/4.9.2/ -mtune=corei7 -march=x86-64 -g -Og
REM COMMAND_LINE
REM seed -1219405394 995488825 547027936 -1925688464 1772861476 -2051898235 750795050 -1839557957 -1443177719 -2021857439 -1799915213 -1818810885
REM
REM S 3|1.8|5|6|7|30:31:32(qc=5)
REM O 2|1.5|12|13|15|20:21(qc=5)
REM Li 1|1.3|8|9|10|10U:20(qc=5)
REM Fe 3|2.2|2.0|1.0|8|9|10|40:41:32(qc=5)
REM F 2|1.6|10|12|13|20:21(qc=5)
REM 
CELL 1.54180    7.61460    9.41531    7.70254   90.00000   90.00000  123.39903
LATT -1
SFAC Li O  F  S  Fe 
Li     1 -0.0463490000000  0.1787370000000  0.2126640000000 1.0  -0.02
Li     1 -0.0463490000000 -0.3212630000000 -0.2126640000000 1.0  -0.02
Li     1  0.3542990000000 -0.2526410000000  0.0340540000000 1.0  -0.01
Li     1  0.3542990000000  0.2473590000000 -0.0340540000000 1.0  -0.01
O      2 -0.1446000000000  0.3069720000000  0.1109860000000 1.0   0.01
O      2 -0.3136290000000  0.3598830000000 -0.1294490000000 1.0   0.05
O      2 -0.0736250000000  0.2656170000000 -0.1869080000000 1.0   0.07
O      2  0.0636230000000  0.5579120000000 -0.0814320000000 1.0   0.01
O      2 -0.1446000000000 -0.1930280000000 -0.1109860000000 1.0   0.01
O      2 -0.3136290000000 -0.1401170000000  0.1294490000000 1.0   0.05
O      2 -0.0736250000000 -0.2343830000000  0.1869080000000 1.0   0.07
O      2  0.0636230000000  0.0579120000000  0.0814320000000 1.0   0.01
O      2  0.5281280000000  0.0921020000000 -0.4028270000000 1.0   0.08
O      2  0.4850960000000 -0.1818880000000 -0.3627480000000 1.0   0.06
O      2  0.1746720000000 -0.1612060000000 -0.3830530000000 1.0   0.06
O      2  0.3901790000000 -0.0660120000000 -0.1216130000000 1.0   0.02
O      2  0.5281280000000  0.5921020000000  0.4028270000000 1.0   0.08
O      2  0.4850960000000  0.3181120000000  0.3627480000000 1.0   0.06
O      2  0.1746720000000  0.3387940000000  0.3830530000000 1.0   0.06
O      2  0.3901790000000  0.4339880000000  0.1216130000000 1.0   0.02
F      3 -0.1594420000000 -0.4524220000000 -0.4369950000000 1.0   0.11
F      3 -0.1594420000000  0.0475780000000  0.4369950000000 1.0   0.11
F      3  0.3029760000000 -0.2355210000000  0.2734820000000 1.0   0.11
F      3  0.3029760000000  0.2644790000000 -0.2734820000000 1.0   0.11
S      4 -0.1134550000000  0.3737810000000 -0.0675330000000 1.0   0.01
S      4 -0.1134550000000 -0.1262190000000  0.0675330000000 1.0   0.01
S      4  0.3983520000000 -0.0777100000000 -0.3129120000000 1.0   0.01
S      4  0.3983520000000  0.4222900000000  0.3129120000000 1.0   0.01
Fe     5 -0.4185480000000 -0.1784660000000  0.3873070000000 1.0   3.77
Fe     5 -0.4185480000000  0.3215340000000 -0.3873070000000 1.0   3.77
Fe     5  0.0425090000000 -0.2746260000000  0.3891940000000 1.0   3.66
Fe     5  0.0425090000000  0.2253740000000 -0.3891940000000 1.0   3.66
END
