TITL 4LiFeSO4F-200804-073740-7660ca 0.0573 471.254678 -1.51307559E+004 16.0000 16.3595 32 (C2/c) n - 1
REM
REM Run started: Tue, 04 Aug 2020 11:53:03 +0100 in /lustre/scratch/uccabz1/launch_tmp/launcher_2020-08-04-06-37-36-463181
REM CASTEP 20.1 from code version af48c487+ pr-geom-scf-spinfix Tue Jun 2 15:39:59 2020 +0100
REM Functional Perdew Burke Ernzerhof Relativity Koelling-Harmon Dispersion off
REM Cut-off 340.0000 eV Grid scale 1.7500 Gmax 16.5316 1/A FBSC none
REM MP grid 3 2 2 Offset 0.000 0.000 0.000 No. kpts 5 Spacing 0.07
REM Total runtime: 15421.6 s
REM Overall efficiency: 77.2 %
REM
REM 4LiFeSO4F.cell (79c870615ff1d88195b1fe3fe805288c)
REM
REM compiler GCC version 4.9.2
REM options -cpp -iprefix /lustre/shared/ucl/apps/gcc/4.9.2/bin/../lib/gcc/x86_64-unknown-linux-gnu/4.9.2/ -mtune=corei7 -march=x86-64 -g -Og
REM COMMAND_LINE
REM seed 1661354066 -1995093738 -168511889 -5826304 -336446849 -528046045 -1494414978 -189636037 -1705419824 1378450286 -738003663 477331992
REM
REM S 3|1.8|5|6|7|30:31:32(qc=5)
REM O 2|1.5|12|13|15|20:21(qc=5)
REM Li 1|1.3|8|9|10|10U:20(qc=5)
REM Fe 3|2.2|2.0|1.0|8|9|10|40:41:32(qc=5)
REM F 2|1.6|10|12|13|20:21(qc=5)
REM 
CELL 1.54180    6.22074    8.71260    8.71260   86.73415   88.81368   88.81368
LATT -1
SFAC Li O  F  S  Fe 
Li     1 -0.3226630000000 -0.4013120000000 -0.2558780000000 1.0  -0.01
Li     1 -0.1773370000000  0.2558780000000  0.4013120000000 1.0  -0.01
Li     1  0.3226630000000  0.4013120000000  0.2558780000000 1.0  -0.01
Li     1  0.1773370000000 -0.2558780000000 -0.4013120000000 1.0  -0.01
O      2  0.0392190000000 -0.2141950000000  0.4067470000000 1.0   0.02
O      2 -0.1936680000000  0.0123980000000  0.3359170000000 1.0   0.07
O      2 -0.0200640000000 -0.1368520000000  0.1354150000000 1.0   0.07
O      2  0.1848590000000  0.0305210000000  0.2928150000000 1.0   0.09
O      2 -0.5392190000000 -0.4067470000000  0.2141950000000 1.0   0.02
O      2 -0.3063320000000 -0.3359170000000 -0.0123980000000 1.0   0.07
O      2 -0.4799360000000 -0.1354150000000  0.1368520000000 1.0   0.07
O      2 -0.6848590000000 -0.2928150000000 -0.0305210000000 1.0   0.09
O      2 -0.0392190000000  0.2141950000000 -0.4067470000000 1.0   0.02
O      2  0.1936680000000 -0.0123980000000 -0.3359170000000 1.0   0.07
O      2  0.0200640000000  0.1368520000000 -0.1354150000000 1.0   0.07
O      2 -0.1848590000000 -0.0305210000000 -0.2928150000000 1.0   0.09
O      2  0.5392190000000  0.4067470000000 -0.2141950000000 1.0   0.02
O      2  0.3063320000000  0.3359170000000  0.0123980000000 1.0   0.07
O      2  0.4799360000000  0.1354150000000 -0.1368520000000 1.0   0.07
O      2  0.6848590000000  0.2928150000000  0.0305210000000 1.0   0.09
F      3  0.0177810000000  0.3498580000000  0.2468210000000 1.0   0.08
F      3  0.4822190000000 -0.2468210000000 -0.3498580000000 1.0   0.08
F      3 -0.0177810000000 -0.3498580000000 -0.2468210000000 1.0   0.08
F      3 -0.4822190000000  0.2468210000000  0.3498580000000 1.0   0.08
S      4  0.0041000000000 -0.0838000000000  0.2940350000000 1.0   0.02
S      4 -0.5041000000000 -0.2940350000000  0.0838000000000 1.0   0.02
S      4 -0.0041000000000  0.0838000000000 -0.2940350000000 1.0   0.02
S      4  0.5041000000000  0.2940350000000 -0.0838000000000 1.0   0.02
Fe     5 -0.0039220000000  0.2807340000000  0.0356720000000 1.0   3.67
Fe     5 -0.4960780000000 -0.0356720000000 -0.2807340000000 1.0   3.67
Fe     5  0.0039220000000 -0.2807340000000 -0.0356720000000 1.0   3.67
Fe     5  0.4960780000000  0.0356720000000  0.2807340000000 1.0   3.67
END
