TITL 4LiFeSO4F-200804-063656-66e42a -0.0212 460.598143 -1.51302376E+004 16.0000 16.4388 32 (Aea2) n - 1
REM
REM Run started: Tue, 04 Aug 2020 09:35:08 +0100 in /lustre/scratch/uccabz1/launch_tmp/launcher_2020-08-04-05-36-54-580490
REM CASTEP 20.1 from code version af48c487+ pr-geom-scf-spinfix Tue Jun 2 15:39:59 2020 +0100
REM Functional Perdew Burke Ernzerhof Relativity Koelling-Harmon Dispersion off
REM Cut-off 340.0000 eV Grid scale 1.7500 Gmax 16.5316 1/A FBSC none
REM MP grid 3 2 2 Offset 0.000 0.000 0.000 No. kpts 4 Spacing 0.07
REM Total runtime: 10833.1 s
REM Overall efficiency: 76.875 %
REM
REM 4LiFeSO4F.cell (79c870615ff1d88195b1fe3fe805288c)
REM
REM compiler GCC version 4.9.2
REM options -cpp -iprefix /lustre/shared/ucl/apps/gcc/4.9.2/bin/../lib/gcc/x86_64-unknown-linux-gnu/4.9.2/ -mtune=corei7 -march=x86-64 -g -Og
REM COMMAND_LINE
REM seed 277714325 -400514914 -218311748 1158888626 1825028833 1549441896 -998063691 -1693494584 79616349 744988050 -1223025399 -352406104
REM
REM S 3|1.8|5|6|7|30:31:32(qc=5)
REM O 2|1.5|12|13|15|20:21(qc=5)
REM Li 1|1.3|8|9|10|10U:20(qc=5)
REM Fe 3|2.2|2.0|1.0|8|9|10|40:41:32(qc=5)
REM F 2|1.6|10|12|13|20:21(qc=5)
REM 
CELL 1.54180    6.04291    9.80689    9.18972  122.24759   90.00000   90.00000
LATT -1
SFAC Li O  F  S  Fe 
Li     1  0.1680450000000  0.4221770000000 -0.1346640000000 1.0  -0.02
Li     1 -0.1680450000000 -0.4431590000000  0.1346640000000 1.0  -0.02
Li     1 -0.3319550000000  0.0568410000000  0.1346640000000 1.0  -0.02
Li     1  0.3319550000000 -0.0778230000000 -0.1346640000000 1.0  -0.02
O      2  0.4397730000000  0.1006230000000 -0.2251300000000 1.0   0.05
O      2  0.2575160000000  0.0037150000000 -0.5044570000000 1.0   0.05
O      2  0.0661140000000  0.1977980000000 -0.2319400000000 1.0   0.05
O      2  0.1135510000000 -0.0756280000000 -0.3062390000000 1.0   0.05
O      2 -0.4397730000000  0.3257530000000  0.2251300000000 1.0   0.05
O      2 -0.2575160000000  0.5081720000000  0.5044570000000 1.0   0.05
O      2 -0.0661140000000  0.4297390000000  0.2319400000000 1.0   0.05
O      2 -0.1135510000000  0.2306100000000  0.3062390000000 1.0   0.05
O      2 -0.0602270000000 -0.1742470000000  0.2251300000000 1.0   0.05
O      2 -0.2424840000000  0.0081720000000  0.5044570000000 1.0   0.05
O      2 -0.4338860000000 -0.0702610000000  0.2319400000000 1.0   0.05
O      2 -0.3864490000000 -0.2693900000000  0.3062390000000 1.0   0.05
O      2  0.0602270000000 -0.3993770000000 -0.2251300000000 1.0   0.05
O      2  0.2424840000000 -0.4962850000000 -0.5044570000000 1.0   0.05
O      2  0.4338860000000 -0.3022020000000 -0.2319400000000 1.0   0.05
O      2  0.3864490000000 -0.5756280000000 -0.3062390000000 1.0   0.05
F      3 -0.2806390000000 -0.0100350000000 -0.0896450000000 1.0   0.10
F      3  0.2806390000000  0.0796100000000  0.0896450000000 1.0   0.10
F      3  0.2193610000000 -0.4203900000000  0.0896450000000 1.0   0.10
F      3 -0.2193610000000  0.4899650000000 -0.0896450000000 1.0   0.10
S      4  0.2242510000000  0.0553510000000 -0.3208110000000 1.0   0.01
S      4 -0.2242510000000  0.3761620000000  0.3208110000000 1.0   0.01
S      4 -0.2757490000000 -0.1238380000000  0.3208110000000 1.0   0.01
S      4  0.2757490000000 -0.4446490000000 -0.3208110000000 1.0   0.01
Fe     5  0.2757280000000 -0.1977830000000  0.2587270000000 1.0   3.70
Fe     5 -0.2757280000000 -0.4565100000000 -0.2587270000000 1.0   3.70
Fe     5 -0.2242720000000  0.0434900000000 -0.2587270000000 1.0   3.70
Fe     5  0.2242720000000  0.3022170000000  0.2587270000000 1.0   3.70
END
