TITL 4LiFeSO4F-200804-100534-468541 -0.0410 459.451969 -1.51320817E+004 16.0000 16.2804 32 (P21) n - 1
REM
REM Run started: Tue, 04 Aug 2020 17:09:42 +0100 in /lustre/scratch/uccabz1/launch_tmp/launcher_2020-08-04-09-05-21-758575
REM CASTEP 20.1 from code version af48c487+ pr-geom-scf-spinfix Tue Jun 2 15:39:59 2020 +0100
REM Functional Perdew Burke Ernzerhof Relativity Koelling-Harmon Dispersion off
REM Cut-off 340.0000 eV Grid scale 1.7500 Gmax 16.5316 1/A FBSC none
REM MP grid 3 2 2 Offset 0.000 0.000 0.000 No. kpts 3 Spacing 0.07
REM Total runtime: 27934.9 s
REM Overall efficiency: 74.75 %
REM
REM 4LiFeSO4F.cell (79c870615ff1d88195b1fe3fe805288c)
REM
REM compiler GCC version 4.9.2
REM options -cpp -iprefix /lustre/shared/ucl/apps/gcc/4.9.2/bin/../lib/gcc/x86_64-unknown-linux-gnu/4.9.2/ -mtune=corei7 -march=x86-64 -g -Og
REM COMMAND_LINE
REM seed 170322657 1190593957 -187474651 2076432482 -324127451 -1689398780 1040993903 -2055076878 -439846765 -71687200 2053790939 -2020889572
REM
REM S 3|1.8|5|6|7|30:31:32(qc=5)
REM O 2|1.5|12|13|15|20:21(qc=5)
REM Li 1|1.3|8|9|10|10U:20(qc=5)
REM Fe 3|2.2|2.0|1.0|8|9|10|40:41:32(qc=5)
REM F 2|1.6|10|12|13|20:21(qc=5)
REM 
CELL 1.54180    5.99455    8.96835    8.56715   90.00000   90.00000   85.98805
LATT -1
SFAC Li O  F  S  Fe 
Li     1 -0.4670620000000  0.2404030000000 -0.1589740000000 1.0  -0.01
Li     1  0.4670620000000 -0.2404030000000  0.3410260000000 1.0  -0.01
Li     1  0.0684100000000  0.3426710000000 -0.3460360000000 1.0  -0.02
Li     1 -0.0684100000000 -0.3426710000000  0.1539640000000 1.0  -0.02
O      2 -0.2505190000000 -0.5793620000000 -0.1337690000000 1.0   0.04
O      2 -0.1467350000000 -0.3258630000000 -0.0614400000000 1.0   0.01
O      2 -0.4502480000000 -0.3594570000000 -0.2488190000000 1.0   0.07
O      2 -0.0582350000000 -0.4339930000000 -0.3242540000000 1.0   0.05
O      2  0.2505190000000  0.5793620000000  0.3662310000000 1.0   0.04
O      2  0.1467350000000  0.3258630000000  0.4385600000000 1.0   0.01
O      2  0.4502480000000  0.3594570000000  0.2511810000000 1.0   0.07
O      2  0.0582350000000  0.4339930000000  0.1757460000000 1.0   0.05
O      2  0.1320650000000  0.1034880000000  0.1273150000000 1.0   0.05
O      2  0.4647030000000 -0.0556010000000  0.1905790000000 1.0   0.07
O      2  0.2709060000000 -0.0854570000000 -0.0627840000000 1.0   0.06
O      2  0.1080550000000 -0.1669210000000  0.1833700000000 1.0   0.02
O      2 -0.1320650000000 -0.1034880000000 -0.3726850000000 1.0   0.05
O      2 -0.4647030000000  0.0556010000000 -0.3094210000000 1.0   0.07
O      2 -0.2709060000000  0.0854570000000 -0.5627840000000 1.0   0.06
O      2 -0.1080550000000  0.1669210000000 -0.3166300000000 1.0   0.02
F      3 -0.2295220000000 -0.3055870000000  0.3485160000000 1.0   0.08
F      3  0.2295220000000  0.3055870000000 -0.1514840000000 1.0   0.08
F      3 -0.3078180000000  0.1823390000000  0.0280030000000 1.0   0.11
F      3  0.3078180000000 -0.1823390000000 -0.4719970000000 1.0   0.11
S      4 -0.2243900000000 -0.4207830000000 -0.1883130000000 1.0   0.01
S      4  0.2243900000000  0.4207830000000  0.3116870000000 1.0   0.01
S      4  0.2364750000000 -0.0521800000000  0.1071910000000 1.0   0.01
S      4 -0.2364750000000  0.0521800000000 -0.3928090000000 1.0   0.01
Fe     5  0.0126860000000 -0.2820580000000  0.4997000000000 1.0   3.76
Fe     5 -0.0126860000000  0.2820580000000 -0.0003000000000 1.0   3.76
Fe     5  0.4293650000000 -0.1493580000000 -0.2550030000000 1.0   3.69
Fe     5 -0.4293650000000  0.1493580000000  0.2449970000000 1.0   3.69
END
