TITL 4LiFeSO4F-200818-001805-d6a552 0.0145 471.657776 -1.51312168E+004 16.0000 16.2412 32 (P212121) n - 1
REM
REM Run started: Tue, 18 Aug 2020 02:02:47 +0100 in /lustre/scratch/uccabz1/launch_tmp/launcher_2020-08-17-23-17-52-639918
REM CASTEP 20.1 from code version af48c487+ pr-geom-scf-spinfix Tue Jun 2 15:39:59 2020 +0100
REM Functional Perdew Burke Ernzerhof Relativity Koelling-Harmon Dispersion off
REM Cut-off 340.0000 eV Grid scale 1.7500 Gmax 16.5316 1/A FBSC none
REM MP grid 3 2 2 Offset 0.000 0.000 0.000 No. kpts 2 Spacing 0.07
REM Total runtime: 6324.74 s
REM Overall efficiency: 75.2727 %
REM
REM 4LiFeSO4F.cell (79c870615ff1d88195b1fe3fe805288c)
REM
REM compiler GCC version 4.9.2
REM options -cpp -iprefix /lustre/shared/ucl/apps/gcc/4.9.2/bin/../lib/gcc/x86_64-unknown-linux-gnu/4.9.2/ -mtune=corei7 -march=x86-64 -g -Og
REM COMMAND_LINE
REM seed -816281403 -1733600236 986262433 1011022081 -2026596022 -208800123 -1748005479 -916427121 -449023619 -175738745 -1855445774 1913358382
REM
REM S 3|1.8|5|6|7|30:31:32(qc=5)
REM O 2|1.5|12|13|15|20:21(qc=5)
REM Li 1|1.3|8|9|10|10U:20(qc=5)
REM Fe 3|2.2|2.0|1.0|8|9|10|40:41:32(qc=5)
REM F 2|1.6|10|12|13|20:21(qc=5)
REM 
CELL 1.54180    5.20087    8.45444   10.72670   90.00000   90.00000   90.00000
LATT -1
SFAC Li O  F  S  Fe 
Li     1 -0.1877520000000  0.0807820000000  0.1420470000000 1.0  -0.03
Li     1  0.1877520000000 -0.4192180000000  0.3579530000000 1.0  -0.03
Li     1  0.3122480000000  0.4192180000000 -0.1420470000000 1.0  -0.03
Li     1 -0.3122480000000 -0.0807820000000 -0.3579530000000 1.0  -0.03
O      2 -0.3708920000000 -0.4938850000000 -0.2241300000000 1.0   0.05
O      2 -0.2819450000000 -0.2086700000000 -0.2011830000000 1.0   0.05
O      2  0.0750120000000 -0.4008230000000 -0.1920590000000 1.0   0.01
O      2 -0.2473800000000 -0.3873780000000 -0.0218480000000 1.0   0.06
O      2  0.3708920000000  0.0061150000000 -0.2758700000000 1.0   0.05
O      2  0.2819450000000  0.2913300000000 -0.2988170000000 1.0   0.05
O      2 -0.0750120000000  0.0991770000000 -0.3079410000000 1.0   0.01
O      2  0.2473800000000  0.1126220000000 -0.4781520000000 1.0   0.06
O      2  0.1291080000000 -0.0061150000000  0.2241300000000 1.0   0.05
O      2  0.2180550000000 -0.2913300000000  0.2011830000000 1.0   0.05
O      2  0.5750120000000 -0.0991770000000  0.1920590000000 1.0   0.01
O      2  0.2526200000000 -0.1126220000000  0.0218480000000 1.0   0.06
O      2 -0.1291080000000  0.4938850000000  0.2758700000000 1.0   0.05
O      2 -0.2180550000000  0.2086700000000  0.2988170000000 1.0   0.05
O      2 -0.5750120000000  0.4008230000000  0.3079410000000 1.0   0.01
O      2 -0.2526200000000  0.3873780000000  0.4781520000000 1.0   0.06
F      3 -0.2343460000000 -0.1042950000000  0.4797410000000 1.0   0.12
F      3  0.2343460000000  0.3957050000000  0.0202590000000 1.0   0.12
F      3  0.2656540000000 -0.3957050000000 -0.4797410000000 1.0   0.12
F      3 -0.2656540000000  0.1042950000000 -0.0202590000000 1.0   0.12
S      4 -0.1969190000000 -0.3729070000000 -0.1606890000000 1.0   0.01
S      4  0.1969190000000  0.1270930000000 -0.3393110000000 1.0   0.01
S      4  0.3030810000000 -0.1270930000000  0.1606890000000 1.0   0.01
S      4 -0.3030810000000  0.3729070000000  0.3393110000000 1.0   0.01
Fe     5  0.5137550000000 -0.0382370000000 -0.1017290000000 1.0   3.72
Fe     5 -0.5137550000000  0.4617630000000 -0.3982710000000 1.0   3.72
Fe     5  0.0137550000000 -0.4617630000000  0.1017290000000 1.0   3.72
Fe     5 -0.0137550000000  0.0382370000000  0.3982710000000 1.0   3.72
END
