TITL 4LiFeSO4F-200818-000716-7eafd0 -0.0053 417.457099 -1.51315644E+004 16.0000 16.2495 32 (P21/c) n - 1
REM
REM Run started: Tue, 18 Aug 2020 04:59:30 +0100 in /lustre/scratch/uccabz1/launch_tmp/launcher_2020-08-17-23-07-12-039879
REM CASTEP 20.1 from code version af48c487+ pr-geom-scf-spinfix Tue Jun 2 15:39:59 2020 +0100
REM Functional Perdew Burke Ernzerhof Relativity Koelling-Harmon Dispersion off
REM Cut-off 340.0000 eV Grid scale 1.7500 Gmax 16.5316 1/A FBSC none
REM MP grid 3 2 3 Offset 0.000 0.000 0.000 No. kpts 6 Spacing 0.07
REM Total runtime: 19422.8 s
REM Overall efficiency: 75.1818 %
REM
REM 4LiFeSO4F.cell (79c870615ff1d88195b1fe3fe805288c)
REM
REM compiler GCC version 4.9.2
REM options -cpp -iprefix /lustre/shared/ucl/apps/gcc/4.9.2/bin/../lib/gcc/x86_64-unknown-linux-gnu/4.9.2/ -mtune=corei7 -march=x86-64 -g -Og
REM COMMAND_LINE
REM seed 1875419237 -803074214 -989274346 648873683 -1099580095 -18152816 306847946 273724823 -1723091538 797463337 1976010633 500886426
REM
REM S 3|1.8|5|6|7|30:31:32(qc=5)
REM O 2|1.5|12|13|15|20:21(qc=5)
REM Li 1|1.3|8|9|10|10U:20(qc=5)
REM Fe 3|2.2|2.0|1.0|8|9|10|40:41:32(qc=5)
REM F 2|1.6|10|12|13|20:21(qc=5)
REM 
CELL 1.54180    6.01652   10.41677    7.42771  116.26405   90.00000   90.00000
LATT -1
SFAC Li O  F  S  Fe 
Li     1 -0.1661810000000  0.4330710000000  0.0887630000000 1.0  -0.02
Li     1  0.3338190000000  0.0669290000000 -0.0887630000000 1.0  -0.02
Li     1  0.1661810000000 -0.4330710000000 -0.0887630000000 1.0  -0.02
Li     1 -0.3338190000000 -0.0669290000000  0.0887630000000 1.0  -0.02
O      2 -0.2719590000000 -0.3479860000000 -0.2941980000000 1.0   0.05
O      2 -0.3878730000000 -0.2732270000000  0.0542540000000 1.0   0.03
O      2 -0.1555340000000 -0.4911680000000 -0.1194330000000 1.0   0.01
O      2 -0.5419770000000 -0.4948430000000 -0.2139570000000 1.0   0.04
O      2  0.2280410000000 -0.1520140000000  0.2941980000000 1.0   0.05
O      2  0.1121270000000 -0.2267730000000 -0.0542540000000 1.0   0.03
O      2  0.3444660000000 -0.0088320000000  0.1194330000000 1.0   0.01
O      2 -0.0419770000000 -0.0051570000000  0.2139570000000 1.0   0.04
O      2  0.2719590000000  0.3479860000000  0.2941980000000 1.0   0.05
O      2  0.3878730000000  0.2732270000000 -0.0542540000000 1.0   0.03
O      2  0.1555340000000  0.4911680000000  0.1194330000000 1.0   0.01
O      2  0.5419770000000  0.4948430000000  0.2139570000000 1.0   0.04
O      2 -0.2280410000000  0.1520140000000 -0.2941980000000 1.0   0.05
O      2 -0.1121270000000  0.2267730000000  0.0542540000000 1.0   0.03
O      2 -0.3444660000000  0.0088320000000 -0.1194330000000 1.0   0.01
O      2  0.0419770000000  0.0051570000000 -0.2139570000000 1.0   0.04
F      3 -0.2314520000000 -0.2262940000000  0.4504400000000 1.0   0.15
F      3  0.2685480000000 -0.2737060000000 -0.4504400000000 1.0   0.15
F      3  0.2314520000000  0.2262940000000 -0.4504400000000 1.0   0.15
F      3 -0.2685480000000  0.2737060000000  0.4504400000000 1.0   0.15
S      4 -0.3367800000000 -0.4009290000000 -0.1443040000000 1.0   0.01
S      4  0.1632200000000 -0.0990710000000  0.1443040000000 1.0   0.01
S      4  0.3367800000000  0.4009290000000  0.1443040000000 1.0   0.01
S      4 -0.1632200000000  0.0990710000000 -0.1443040000000 1.0   0.01
Fe     5  0.0218060000000  0.2257760000000  0.3334000000000 1.0   3.74
Fe     5  0.5218060000000  0.2742240000000 -0.3334000000000 1.0   3.74
Fe     5 -0.0218060000000 -0.2257760000000 -0.3334000000000 1.0   3.74
Fe     5 -0.5218060000000 -0.2742240000000  0.3334000000000 1.0   3.74
END
