TITL 4LiFeSO4F-200818-015713-53ce39 -0.0752 538.810186 -1.51314804E+004 16.0000 16.3303 32 (Pba2) n - 1
REM
REM Run started: Tue, 18 Aug 2020 03:44:19 +0100 in /lustre/scratch/uccabz1/launch_tmp/launcher_2020-08-18-00-56-52-435014
REM CASTEP 20.1 from code version af48c487+ pr-geom-scf-spinfix Tue Jun 2 15:39:59 2020 +0100
REM Functional Perdew Burke Ernzerhof Relativity Koelling-Harmon Dispersion off
REM Cut-off 340.0000 eV Grid scale 1.7500 Gmax 16.5316 1/A FBSC none
REM MP grid 3 2 2 Offset 0.000 0.000 0.000 No. kpts 2 Spacing 0.07
REM Total runtime: 6479.65 s
REM Overall efficiency: 76.0909 %
REM
REM 4LiFeSO4F.cell (79c870615ff1d88195b1fe3fe805288c)
REM
REM compiler GCC version 4.9.2
REM options -cpp -iprefix /lustre/shared/ucl/apps/gcc/4.9.2/bin/../lib/gcc/x86_64-unknown-linux-gnu/4.9.2/ -mtune=corei7 -march=x86-64 -g -Og
REM COMMAND_LINE
REM seed -898539192 -794426934 916156557 1966185075 -213107052 -998132463 -356014892 2016165974 1233013006 1111658491 -1712780902 2023510469
REM
REM S 3|1.8|5|6|7|30:31:32(qc=5)
REM O 2|1.5|12|13|15|20:21(qc=5)
REM Li 1|1.3|8|9|10|10U:20(qc=5)
REM Fe 3|2.2|2.0|1.0|8|9|10|40:41:32(qc=5)
REM F 2|1.6|10|12|13|20:21(qc=5)
REM 
CELL 1.54180    5.57188   10.17077    9.50781   90.00000   90.00000   90.00000
LATT -1
SFAC Li O  F  S  Fe 
Li     1  0.2873470000000 -0.3074920000000 -0.4448940000000 1.0  -0.01
Li     1  0.2873470000000  0.3074920000000  0.4448940000000 1.0  -0.01
Li     1  0.2873470000000 -0.1925080000000  0.0551060000000 1.0  -0.01
Li     1  0.2873470000000  0.1925080000000 -0.0551060000000 1.0  -0.01
O      2 -0.0272400000000 -0.2524720000000  0.5204950000000 1.0   0.01
O      2 -0.3856940000000 -0.3244530000000  0.3862480000000 1.0   0.06
O      2 -0.2111250000000 -0.1017750000000  0.3534450000000 1.0   0.06
O      2 -0.4371940000000 -0.1666490000000  0.5682480000000 1.0   0.06
O      2 -0.0272400000000  0.2524720000000 -0.5204950000000 1.0   0.01
O      2 -0.3856940000000  0.3244530000000 -0.3862480000000 1.0   0.06
O      2 -0.2111250000000  0.1017750000000 -0.3534450000000 1.0   0.06
O      2 -0.4371940000000  0.1666490000000 -0.5682480000000 1.0   0.06
O      2 -0.0272400000000 -0.2475280000000  0.0204950000000 1.0   0.01
O      2 -0.3856940000000 -0.1755470000000 -0.1137520000000 1.0   0.06
O      2 -0.2111250000000 -0.3982250000000 -0.1465550000000 1.0   0.06
O      2 -0.4371940000000 -0.3333510000000  0.0682480000000 1.0   0.06
O      2 -0.0272400000000  0.2475280000000 -0.0204950000000 1.0   0.01
O      2 -0.3856940000000  0.1755470000000  0.1137520000000 1.0   0.06
O      2 -0.2111250000000  0.3982250000000  0.1465550000000 1.0   0.06
O      2 -0.4371940000000  0.3333510000000 -0.0682480000000 1.0   0.06
F      3  0.3562680000000 -0.0631760000000  0.1744000000000 1.0   0.11
F      3  0.3562680000000  0.0631760000000 -0.1744000000000 1.0   0.11
F      3  0.3562680000000 -0.4368240000000 -0.3256000000000 1.0   0.11
F      3  0.3562680000000  0.4368240000000  0.3256000000000 1.0   0.11
S      4 -0.2553470000000 -0.2112870000000  0.4562390000000 1.0   0.02
S      4 -0.2553470000000  0.2112870000000 -0.4562390000000 1.0   0.02
S      4 -0.2553470000000 -0.2887130000000 -0.0437610000000 1.0   0.02
S      4 -0.2553470000000  0.2887130000000  0.0437610000000 1.0   0.02
Fe     5 -0.4126400000000 -0.0408990000000 -0.2681420000000 1.0   3.69
Fe     5 -0.4126400000000  0.0408990000000  0.2681420000000 1.0   3.69
Fe     5 -0.4126400000000 -0.4591010000000  0.2318580000000 1.0   3.69
Fe     5 -0.4126400000000  0.4591010000000 -0.2318580000000 1.0   3.69
END
