TITL 4LiFeSO4F-200804-093629-270f26 0.0035 369.818893 -1.51325446E+004 16.0000 16.2078 32 (Cc) n - 1
REM
REM Run started: Wed, 05 Aug 2020 02:08:30 +0100 in /lustre/scratch/uccabz1/launch_tmp/launcher_2020-08-04-16-17-00-658428
REM CASTEP 20.1 from code version af48c487+ pr-geom-scf-spinfix Tue Jun 2 15:39:59 2020 +0100
REM Functional Perdew Burke Ernzerhof Relativity Koelling-Harmon Dispersion off
REM Cut-off 340.0000 eV Grid scale 1.7500 Gmax 16.5316 1/A FBSC none
REM MP grid 3 3 2 Offset 0.000 0.000 0.000 No. kpts 6 Spacing 0.07
REM Total runtime: 38376.1 s
REM Overall efficiency: 65.1111 %
REM
REM
REM
REM compiler GCC version 4.9.2
REM options -cpp -iprefix /lustre/shared/ucl/apps/gcc/4.9.2/bin/../lib/gcc/x86_64-unknown-linux-gnu/4.9.2/ -mtune=corei7 -march=x86-64 -g -Og
REM COMMAND_LINE
REM seed -1991399544 1904426995 1258582533 1005526915 -541479828 1297510324 218282811 -13354026 481552270 -307651785 606354870 1131131316
REM
REM S 3|1.8|5|6|7|30:31:32(qc=5)
REM O 2|1.5|12|13|15|20:21(qc=5)
REM Li 1|1.3|8|9|10|10U:20(qc=5)
REM Fe 3|2.2|2.0|1.0|8|9|10|40:41:32(qc=5)
REM F 2|1.6|10|12|13|20:21(qc=5)
REM 
CELL 1.54180    7.45159    7.45159   10.81577   68.75526   68.75526   41.92388
LATT -1
SFAC Li O  F  S  Fe 
Li     1 -0.0705120000000  0.4258690000000  0.0844360000000 1.0  -0.04
Li     1  0.4258690000000 -0.0705120000000 -0.4155640000000 1.0  -0.04
Li     1 -0.0776880000000 -0.0742280000000  0.0873420000000 1.0  -0.03
Li     1 -0.0742280000000 -0.0776880000000 -0.4126580000000 1.0  -0.03
O      2  0.2381260000000  0.2410840000000 -0.0764090000000 1.0   0.04
O      2  0.6063130000000  0.1311130000000 -0.2595380000000 1.0   0.05
O      2  0.1444510000000  0.5996660000000 -0.2611900000000 1.0   0.05
O      2  0.2372380000000  0.2360160000000 -0.3053900000000 1.0   0.05
O      2  0.2410840000000  0.2381260000000  0.4235910000000 1.0   0.04
O      2  0.1311130000000  0.6063130000000  0.2404620000000 1.0   0.05
O      2  0.5996660000000  0.1444510000000  0.2388100000000 1.0   0.05
O      2  0.2360160000000  0.2372380000000  0.1946100000000 1.0   0.05
O      2  0.6168800000000 -0.3777310000000  0.4774040000000 1.0   0.05
O      2  0.2516810000000 -0.2790080000000  0.4317960000000 1.0   0.05
O      2  0.7156730000000 -0.7455060000000  0.4337020000000 1.0   0.05
O      2  0.6196570000000 -0.3866690000000  0.2486610000000 1.0   0.04
O      2 -0.3777310000000  0.6168800000000 -0.0225960000000 1.0   0.05
O      2 -0.2790080000000  0.2516810000000 -0.0682040000000 1.0   0.05
O      2 -0.7455060000000  0.7156730000000 -0.0662980000000 1.0   0.05
O      2 -0.3866690000000  0.6196570000000 -0.2513390000000 1.0   0.04
F      3  0.0590650000000  0.0506250000000  0.1484270000000 1.0   0.09
F      3  0.0506250000000  0.0590650000000 -0.3515730000000 1.0   0.09
F      3 -0.2021180000000 -0.1945730000000  0.0237710000000 1.0   0.09
F      3 -0.1945730000000 -0.2021180000000 -0.4762290000000 1.0   0.09
S      4  0.3060150000000  0.3012870000000 -0.2251600000000 1.0   0.02
S      4  0.3012870000000  0.3060150000000  0.2748400000000 1.0   0.02
S      4  0.5511970000000 -0.4466440000000  0.3972680000000 1.0   0.02
S      4 -0.4466440000000  0.5511970000000 -0.1027320000000 1.0   0.02
Fe     5 -0.0670640000000 -0.0755980000000 -0.1642110000000 1.0   3.74
Fe     5 -0.0755980000000 -0.0670640000000  0.3357890000000 1.0   3.74
Fe     5 -0.0749260000000 -0.5705140000000  0.5859260000000 1.0   3.74
Fe     5 -0.5705140000000 -0.0749260000000  0.0859260000000 1.0   3.74
END
