TITL 4LiFeSO4F-200818-042913-72ac8a -0.0444 451.498432 -1.51259461E+004 -18.0170 18.2164 32 (P2) n - 1
REM
REM Run started: Thu, 20 Aug 2020 16:28:27 +0100 in /lustre/scratch/uccabz1/launch_tmp/launcher_2020-08-19-14-05-37-458757
REM CASTEP 20.1 from code version af48c487+ pr-geom-scf-spinfix Tue Jun 2 15:39:59 2020 +0100
REM Functional Perdew Burke Ernzerhof Relativity Koelling-Harmon Dispersion off
REM Cut-off 340.0000 eV Grid scale 1.7500 Gmax 16.5316 1/A FBSC none
REM MP grid 3 3 1 Offset 0.000 0.000 0.000 No. kpts 4 Spacing 0.07
REM Total runtime: 90555.7 s
REM Overall efficiency: 68.7778 %
REM
REM
REM
REM compiler GCC version 4.9.2
REM options -cpp -iprefix /lustre/shared/ucl/apps/gcc/4.9.2/bin/../lib/gcc/x86_64-unknown-linux-gnu/4.9.2/ -mtune=corei7 -march=x86-64 -g -Og
REM COMMAND_LINE
REM seed 1067089414 194761390 -611125290 520891629 1924557812 1066151934 1850808910 -1128513036 -749394464 -1616849385 1794725814 -396201212
REM
REM S 3|1.8|5|6|7|30:31:32(qc=5)
REM O 2|1.5|12|13|15|20:21(qc=5)
REM Li 1|1.3|8|9|10|10U:20(qc=5)
REM Fe 3|2.2|2.0|1.0|8|9|10|40:41:32(qc=5)
REM F 2|1.6|10|12|13|20:21(qc=5)
REM 
CELL 1.54180    5.05806    5.71666   15.62578   90.00000   87.83074   90.00000
LATT -1
SFAC Li O  F  S  Fe 
Li     1 -0.3051410000000  0.2073230000000  0.0948900000000 1.0   0.03
Li     1  0.3051410000000  0.2073230000000 -0.0948900000000 1.0   0.03
Li     1 -0.2913420000000  0.4845080000000 -0.1916800000000 1.0   0.01
Li     1  0.2913420000000  0.4845080000000  0.1916800000000 1.0   0.01
O      2  0.0697640000000 -0.5045570000000 -0.1383850000000 1.0  -0.03
O      2 -0.0674670000000 -0.2264100000000 -0.2429740000000 1.0  -0.10
O      2  0.4116570000000 -0.2841060000000 -0.2181550000000 1.0  -0.09
O      2  0.1263170000000 -0.0798160000000 -0.1098710000000 1.0  -0.01
O      2 -0.0697640000000 -0.5045570000000  0.1383850000000 1.0  -0.03
O      2  0.0674670000000 -0.2264100000000  0.2429740000000 1.0  -0.10
O      2 -0.4116570000000 -0.2841060000000  0.2181550000000 1.0  -0.09
O      2 -0.1263170000000 -0.0798160000000  0.1098710000000 1.0  -0.01
O      2 -0.2339110000000  0.2811220000000  0.4508880000000 1.0  -0.10
O      2 -0.2888480000000  0.1569800000000  0.2975470000000 1.0  -0.10
O      2  0.1552550000000  0.2581540000000  0.3426230000000 1.0  -0.10
O      2  0.2339110000000  0.2811220000000 -0.4508880000000 1.0  -0.10
O      2  0.2888480000000  0.1569800000000 -0.2975470000000 1.0  -0.10
O      2 -0.1552550000000  0.2581540000000 -0.3426230000000 1.0  -0.10
O      2  0.5000000000000  0.3078900000000  0.0000000000000 1.0  -1.30
O      2  0.0000000000000 -0.2049960000000 -0.5000000000000 1.0  -0.36
F      3 -0.4424250000000 -0.1344560000000 -0.3978550000000 1.0  -0.19
F      3  0.4424250000000 -0.1344560000000  0.3978550000000 1.0  -0.19
F      3  0.3803710000000  0.1789060000000  0.1745850000000 1.0  -0.14
F      3 -0.3803710000000  0.1789060000000 -0.1745850000000 1.0  -0.14
S      4  0.1362090000000 -0.2678640000000 -0.1737000000000 1.0  -0.00
S      4 -0.1362090000000 -0.2678640000000  0.1737000000000 1.0  -0.00
S      4 -0.1375900000000  0.3355570000000  0.3471950000000 1.0  -0.04
S      4  0.1375900000000  0.3355570000000 -0.3471950000000 1.0  -0.04
Fe     5 -0.3691450000000 -0.0146040000000 -0.2771230000000 1.0  -4.03
Fe     5  0.3691450000000 -0.0146040000000  0.2771230000000 1.0  -4.03
Fe     5  0.5000000000000  0.0460420000000  0.5000000000000 1.0  -3.90
Fe     5  0.0000000000000 -0.4910440000000  0.5000000000000 1.0  -2.67
END
