TITL 4LiFeSO4F-200804-070635-adb545 -0.0351 466.292558 -1.51306821E+004 16.0000 16.3489 32 (Cc) n - 1
REM
REM Run started: Tue, 04 Aug 2020 15:54:04 +0100 in /lustre/scratch/uccabz1/launch_tmp/launcher_2020-08-04-06-06-26-156955
REM CASTEP 20.1 from code version af48c487+ pr-geom-scf-spinfix Tue Jun 2 15:39:59 2020 +0100
REM Functional Perdew Burke Ernzerhof Relativity Koelling-Harmon Dispersion off
REM Cut-off 340.0000 eV Grid scale 1.7500 Gmax 16.5316 1/A FBSC none
REM MP grid 3 3 1 Offset 0.000 0.000 0.000 No. kpts 4 Spacing 0.07
REM Total runtime: 35218.2 s
REM Overall efficiency: 74.4167 %
REM
REM 4LiFeSO4F.cell (79c870615ff1d88195b1fe3fe805288c)
REM
REM compiler GCC version 4.9.2
REM options -cpp -iprefix /lustre/shared/ucl/apps/gcc/4.9.2/bin/../lib/gcc/x86_64-unknown-linux-gnu/4.9.2/ -mtune=corei7 -march=x86-64 -g -Og
REM COMMAND_LINE
REM seed 560069296 -1643024162 848863400 -161802192 1041171376 1652692970 1371451067 -1053986288 1118324387 -218683036 -1051970236 1338602008
REM
REM S 3|1.8|5|6|7|30:31:32(qc=5)
REM O 2|1.5|12|13|15|20:21(qc=5)
REM Li 1|1.3|8|9|10|10U:20(qc=5)
REM Fe 3|2.2|2.0|1.0|8|9|10|40:41:32(qc=5)
REM F 2|1.6|10|12|13|20:21(qc=5)
REM 
CELL 1.54180    5.12199    5.12199   18.21043   82.66182   82.66182   82.01811
LATT -1
SFAC Li O  F  S  Fe 
Li     1  0.4422200000000  0.2530380000000  0.2147110000000 1.0  -0.02
Li     1 -0.2469620000000 -0.0577800000000 -0.2852890000000 1.0  -0.02
Li     1  0.0987810000000 -0.5849970000000  0.0661140000000 1.0  -0.02
Li     1 -0.0849970000000 -0.4012190000000 -0.4338860000000 1.0  -0.02
O      2 -0.5802810000000  0.0193250000000 -0.4972350000000 1.0   0.08
O      2 -0.7643030000000 -0.3080660000000 -0.4025680000000 1.0   0.04
O      2 -0.7759430000000  0.1543170000000 -0.3746460000000 1.0   0.03
O      2 -0.3531160000000 -0.1447190000000 -0.3860150000000 1.0   0.01
O      2  0.5193250000000 -0.0802810000000  0.0027650000000 1.0   0.08
O      2  0.1919340000000 -0.2643030000000  0.0974320000000 1.0   0.04
O      2  0.6543170000000 -0.2759430000000  0.1253540000000 1.0   0.03
O      2  0.3552810000000  0.1468840000000  0.1139850000000 1.0   0.01
O      2  0.3061170000000 -0.0000870000000  0.2984990000000 1.0   0.01
O      2  0.2492700000000 -0.4193710000000  0.2540250000000 1.0   0.04
O      2  0.3020280000000 -0.4115910000000  0.3861810000000 1.0   0.09
O      2  0.6818270000000 -0.3650150000000  0.2934450000000 1.0   0.05
O      2  0.4999130000000 -0.1938830000000 -0.2015010000000 1.0   0.01
O      2  0.0806290000000 -0.2507300000000 -0.2459750000000 1.0   0.04
O      2  0.0884090000000 -0.1979720000000 -0.1138190000000 1.0   0.09
O      2  0.1349850000000  0.1818270000000 -0.2065550000000 1.0   0.05
F      3 -0.1942270000000  0.4324180000000  0.4950830000000 1.0   0.13
F      3 -0.0675820000000 -0.6942270000000 -0.0049170000000 1.0   0.13
F      3 -0.1885790000000  0.1563390000000  0.1980390000000 1.0   0.14
F      3 -0.3436610000000  0.3114210000000 -0.3019610000000 1.0   0.14
S      4 -0.6190070000000 -0.0648080000000 -0.4137460000000 1.0   0.01
S      4  0.4351920000000 -0.1190070000000  0.0862540000000 1.0   0.01
S      4  0.3859470000000 -0.2905250000000  0.3071080000000 1.0   0.01
S      4  0.2094750000000 -0.1140530000000 -0.1928920000000 1.0   0.01
Fe     5 -0.0768600000000 -0.2097200000000  0.2019710000000 1.0   3.76
Fe     5  0.2902800000000  0.4231400000000 -0.2980290000000 1.0   3.76
Fe     5 -0.4763380000000  0.3519910000000  0.4495790000000 1.0   3.64
Fe     5 -0.1480090000000  0.0236620000000 -0.0504210000000 1.0   3.64
END
