TITL 4LiFeSO4F-200818-063734-159be0 0.0467 601.295954 -1.51234878E+004 -11.9002 12.9871 32 (Cm) n - 1
REM
REM Run started: Wed, 19 Aug 2020 01:52:49 +0100 in /lustre/scratch/uccabz1/launch_tmp/launcher_2020-08-18-05-37-30-816050
REM CASTEP 20.1 from code version af48c487+ pr-geom-scf-spinfix Tue Jun 2 15:39:59 2020 +0100
REM Functional Perdew Burke Ernzerhof Relativity Koelling-Harmon Dispersion off
REM Cut-off 340.0000 eV Grid scale 1.7500 Gmax 16.5316 1/A FBSC none
REM MP grid 3 2 2 Offset 0.000 0.000 0.000 No. kpts 5 Spacing 0.07
REM Total runtime: 83071.3 s
REM Overall efficiency: 69.5 %
REM
REM 4LiFeSO4F.cell (79c870615ff1d88195b1fe3fe805288c)
REM
REM compiler GCC version 4.9.2
REM options -cpp -iprefix /lustre/shared/ucl/apps/gcc/4.9.2/bin/../lib/gcc/x86_64-unknown-linux-gnu/4.9.2/ -mtune=corei7 -march=x86-64 -g -Og
REM COMMAND_LINE
REM seed -1213226516 74861027 1884794740 1484607170 1374072768 -1210394106 1388670241 -1884885968 1391849227 1425445570 2071590352 -1909610761
REM
REM S 3|1.8|5|6|7|30:31:32(qc=5)
REM O 2|1.5|12|13|15|20:21(qc=5)
REM Li 1|1.3|8|9|10|10U:20(qc=5)
REM Fe 3|2.2|2.0|1.0|8|9|10|40:41:32(qc=5)
REM F 2|1.6|10|12|13|20:21(qc=5)
REM 
CELL 1.54180    9.96119   11.70497   11.70497   50.21475   42.10683   42.10683
LATT -1
SFAC Li O  F  S  Fe 
Li     1  0.3848910000000  0.2936400000000 -0.1893040000000 1.0  -0.01
Li     1  0.3848910000000 -0.1893040000000  0.2936400000000 1.0  -0.01
Li     1  0.2688590000000  0.2112560000000 -0.2579850000000 1.0  -0.00
Li     1  0.2688590000000 -0.2579850000000  0.2112560000000 1.0  -0.00
O      2 -0.4907600000000 -0.0226930000000  0.2303240000000 1.0   0.00
O      2 -0.0084490000000 -0.0378330000000  0.2153600000000 1.0  -0.44
O      2 -0.0216140000000 -0.3261200000000 -0.0691590000000 1.0   0.05
O      2 -0.2906920000000 -0.4568150000000  0.2728840000000 1.0  -0.21
O      2 -0.4907600000000  0.2303240000000 -0.0226930000000 1.0   0.00
O      2 -0.0084490000000  0.2153600000000 -0.0378330000000 1.0  -0.44
O      2 -0.0216140000000 -0.0691590000000 -0.3261200000000 1.0   0.05
O      2 -0.2906920000000  0.2728840000000 -0.4568150000000 1.0  -0.21
O      2 -0.1474870000000 -0.1624500000000 -0.4120530000000 1.0  -0.00
O      2 -0.7266120000000 -0.0080220000000 -0.2589410000000 1.0  -0.04
O      2 -0.3329110000000  0.1873750000000 -0.5711460000000 1.0  -0.11
O      2 -0.4622830000000  0.0756850000000 -0.2362750000000 1.0  -0.56
O      2 -0.1474870000000 -0.4120530000000 -0.1624500000000 1.0  -0.00
O      2 -0.7266120000000 -0.2589410000000 -0.0080220000000 1.0  -0.04
O      2 -0.3329110000000 -0.5711460000000  0.1873750000000 1.0  -0.11
O      2 -0.4622830000000 -0.2362750000000  0.0756850000000 1.0  -0.56
F      3  0.2872370000000 -0.3508990000000  0.4028140000000 1.0  -0.08
F      3  0.2872370000000  0.4028140000000 -0.3508990000000 1.0  -0.08
F      3  0.0889820000000  0.0101070000000  0.3618100000000 1.0  -0.05
F      3  0.0889820000000  0.3618100000000  0.0101070000000 1.0  -0.05
S      4 -0.7186670000000 -0.0985540000000 -0.0985540000000 1.0  -0.05
S      4  0.0806180000000 -0.2131510000000 -0.2131510000000 1.0   0.15
S      4 -0.5131250000000  0.1475820000000  0.1475820000000 1.0  -0.00
S      4 -0.0664830000000 -0.3494110000000 -0.3494110000000 1.0   0.01
Fe     5 -0.2167460000000  0.0621010000000 -0.4299430000000 1.0  -1.58
Fe     5 -0.2167460000000 -0.4299430000000  0.0621010000000 1.0  -1.58
Fe     5 -0.1233140000000  0.1756160000000  0.1756160000000 1.0  -2.88
Fe     5  0.6018200000000  0.4008570000000  0.4008570000000 1.0  -3.06
END
