TITL 4LiFeSO4F-200804-075439-e32b88 0.0199 423.597600 -1.51310558E+004 16.0000 16.1670 32 (P-1) n - 1
REM
REM Run started: Wed, 05 Aug 2020 07:10:13 +0100 in /lustre/scratch/uccabz1/launch_tmp/launcher_2020-08-04-14-51-41-781256
REM CASTEP 20.1 from code version af48c487+ pr-geom-scf-spinfix Tue Jun 2 15:39:59 2020 +0100
REM Functional Perdew Burke Ernzerhof Relativity Koelling-Harmon Dispersion off
REM Cut-off 340.0000 eV Grid scale 1.7500 Gmax 16.5316 1/A FBSC none
REM MP grid 4 2 2 Offset 0.000 0.000 0.000 No. kpts 8 Spacing 0.07
REM Total runtime: 63082.5 s
REM Overall efficiency: 97.8889 %
REM
REM
REM
REM compiler GCC version 4.9.2
REM options -cpp -iprefix /lustre/shared/ucl/apps/gcc/4.9.2/bin/../lib/gcc/x86_64-unknown-linux-gnu/4.9.2/ -mtune=corei7 -march=x86-64 -g -Og
REM COMMAND_LINE
REM seed 138926049 -936249978 -1652429385 -1890633087 -1270371013 -46263347 -1928428748 489305126 1830204641 -2118545292 1013336526 -871149799
REM
REM S 3|1.8|5|6|7|30:31:32(qc=5)
REM O 2|1.5|12|13|15|20:21(qc=5)
REM Li 1|1.3|8|9|10|10U:20(qc=5)
REM Fe 3|2.2|2.0|1.0|8|9|10|40:41:32(qc=5)
REM F 2|1.6|10|12|13|20:21(qc=5)
REM 
CELL 1.54180    4.80595   10.27498   10.69881  109.64659  120.03161   88.84481
LATT -1
SFAC Li O  F  S  Fe 
Li     1  0.1015730000000 -0.4718160000000  0.3316470000000 1.0  -0.02
Li     1 -0.1015730000000  0.4718160000000 -0.3316470000000 1.0  -0.02
Li     1 -0.7426710000000 -0.1403910000000 -0.5215850000000 1.0  -0.01
Li     1  0.7426710000000  0.1403910000000  0.5215850000000 1.0  -0.01
O      2 -0.2775260000000  0.1961120000000 -0.0598680000000 1.0   0.10
O      2 -0.5807080000000  0.0286450000000 -0.3315240000000 1.0   0.01
O      2 -0.0344430000000 -0.0021460000000 -0.1372820000000 1.0   0.06
O      2 -0.0695640000000  0.1860090000000 -0.2333530000000 1.0   0.04
O      2  0.2775260000000 -0.1961120000000  0.0598680000000 1.0   0.10
O      2  0.5807080000000 -0.0286450000000  0.3315240000000 1.0   0.01
O      2  0.0344430000000  0.0021460000000  0.1372820000000 1.0   0.06
O      2  0.0695640000000 -0.1860090000000  0.2333530000000 1.0   0.04
O      2  0.3120320000000  0.1742730000000  0.4687000000000 1.0   0.00
O      2  0.4632240000000  0.4318120000000  0.6215970000000 1.0   0.01
O      2 -0.0817440000000  0.3065790000000  0.5122350000000 1.0   0.01
O      2  0.0810040000000  0.3367870000000  0.3363160000000 1.0   0.07
O      2 -0.3120320000000 -0.1742730000000 -0.4687000000000 1.0   0.00
O      2 -0.4632240000000 -0.4318120000000 -0.6215970000000 1.0   0.01
O      2  0.0817440000000 -0.3065790000000 -0.5122350000000 1.0   0.01
O      2 -0.0810040000000 -0.3367870000000 -0.3363160000000 1.0   0.07
F      3 -0.2180610000000  0.5179730000000  0.1213580000000 1.0   0.11
F      3  0.2180610000000 -0.5179730000000 -0.1213580000000 1.0   0.11
F      3 -0.3925750000000 -0.2821790000000 -0.1140410000000 1.0   0.15
F      3  0.3925750000000  0.2821790000000  0.1140410000000 1.0   0.15
S      4 -0.2490840000000  0.0970230000000 -0.1993500000000 1.0   0.01
S      4  0.2490840000000 -0.0970230000000  0.1993500000000 1.0   0.01
S      4  0.2028430000000  0.3118350000000  0.4898490000000 1.0   0.00
S      4 -0.2028430000000 -0.3118350000000 -0.4898490000000 1.0   0.00
Fe     5  0.4009900000000  0.3301300000000 -0.0490620000000 1.0   3.75
Fe     5 -0.4009900000000 -0.3301300000000  0.0490620000000 1.0   3.75
Fe     5  0.1027360000000  0.2030610000000  0.1584040000000 1.0   3.71
Fe     5 -0.1027360000000 -0.2030610000000 -0.1584040000000 1.0   3.71
END
