TITL 4LiFeSO4F-200818-105002-b3ba91 0.1737 499.892876 -15130.85868601 16.0000 16.2686 32 (P-1) n - 1
REM
REM Run started: Wed, 19 Aug 2020 12:40:18 +0100 in /lustre/scratch/uccabz1/launch_tmp/launcher_2020-08-18-09-49-47-030935
REM CASTEP 20.1 from code version af48c487+ pr-geom-scf-spinfix Tue Jun 2 15:39:59 2020 +0100
REM Functional Perdew Burke Ernzerhof Relativity Koelling-Harmon Dispersion off
REM Cut-off 340.0000 eV Grid scale 1.7500 Gmax 16.5316 1/A FBSC none
REM MP grid 3 3 3 Offset 0.000 0.000 0.000 No. kpts 14 Spacing 0.07
REM Total runtime: 92996.3 s
REM Overall efficiency: 98.1818 %
REM
REM 4LiFeSO4F.cell (79c870615ff1d88195b1fe3fe805288c)
REM
REM compiler GCC version 4.9.2
REM options -cpp -iprefix /lustre/shared/ucl/apps/gcc/4.9.2/bin/../lib/gcc/x86_64-unknown-linux-gnu/4.9.2/ -mtune=corei7 -march=x86-64 -g -Og
REM COMMAND_LINE
REM seed 1781930581 1231098409 863633537 -1603993381 811421420 -212241637 1165107086 -1822453427 -1858619492 -1023761552 464502157 171801389
REM
REM S 3|1.8|5|6|7|30:31:32(qc=5)
REM O 2|1.5|12|13|15|20:21(qc=5)
REM Li 1|1.3|8|9|10|10U:20(qc=5)
REM Fe 3|2.2|2.0|1.0|8|9|10|40:41:32(qc=5)
REM F 2|1.6|10|12|13|20:21(qc=5)
REM 
CELL 1.54180    9.07119    9.11135   10.65600  106.76768  120.16165  117.23821
LATT -1
SFAC Li O  F  S  Fe 
Li     1  0.2815090000000 -0.4445280000000 -0.0178480000000 1.0  -0.02
Li     1 -0.2815090000000  0.4445280000000  0.0178480000000 1.0  -0.02
Li     1  0.6371180000000 -0.0584110000000  0.5489730000000 1.0  -0.01
Li     1 -0.6371180000000  0.0584110000000 -0.5489730000000 1.0  -0.01
O      2 -0.3946230000000 -0.9012300000000 -0.5447800000000 1.0   0.02
O      2 -0.3255770000000 -0.8580050000000 -0.7340620000000 1.0   0.07
O      2  0.0209310000000 -0.6769620000000 -0.3923950000000 1.0   0.05
O      2 -0.1690230000000 -0.5435460000000 -0.4613110000000 1.0   0.07
O      2  0.3946230000000  0.9012300000000  0.5447800000000 1.0   0.02
O      2  0.3255770000000  0.8580050000000  0.7340620000000 1.0   0.07
O      2 -0.0209310000000  0.6769620000000  0.3923950000000 1.0   0.05
O      2  0.1690230000000  0.5435460000000  0.4613110000000 1.0   0.07
O      2 -0.0708100000000  0.0556350000000  0.2198320000000 1.0   0.07
O      2 -0.3537710000000 -0.2640290000000  0.1671610000000 1.0   0.04
O      2 -0.1001780000000 -0.2438710000000  0.1289050000000 1.0   0.01
O      2 -0.4508410000000 -0.3122070000000 -0.1114410000000 1.0   0.07
O      2  0.0708100000000 -0.0556350000000 -0.2198320000000 1.0   0.07
O      2  0.3537710000000  0.2640290000000 -0.1671610000000 1.0   0.04
O      2  0.1001780000000  0.2438710000000 -0.1289050000000 1.0   0.01
O      2  0.4508410000000  0.3122070000000  0.1114410000000 1.0   0.07
F      3  0.4009540000000  0.2751970000000  0.5888130000000 1.0   0.11
F      3 -0.4009540000000 -0.2751970000000 -0.5888130000000 1.0   0.11
F      3 -0.1922390000000  0.3081500000000  0.0492340000000 1.0   0.11
F      3  0.1922390000000 -0.3081500000000 -0.0492340000000 1.0   0.11
S      4 -0.2190930000000 -0.7457520000000 -0.5350900000000 1.0   0.02
S      4  0.2190930000000  0.7457520000000  0.5350900000000 1.0   0.02
S      4 -0.2422860000000 -0.1926810000000  0.1010300000000 1.0   0.01
S      4  0.2422860000000  0.1926810000000 -0.1010300000000 1.0   0.01
Fe     5  0.1557590000000 -0.2203290000000 -0.1915700000000 1.0   3.68
Fe     5 -0.1557590000000  0.2203290000000  0.1915700000000 1.0   3.68
Fe     5  0.7227890000000  0.6469590000000  0.3459260000000 1.0   3.69
Fe     5 -0.7227890000000 -0.6469590000000 -0.3459260000000 1.0   3.69
END
