TITL 4LiFeSO4F-200804-073040-be4014 -0.0077 437.073691 -1.51313436E+004 16.0000 16.3368 32 (Aea2) n - 1
REM
REM Run started: Tue, 04 Aug 2020 09:31:29 +0100 in /lustre/scratch/uccabz1/launch_tmp/launcher_2020-08-04-06-30-37-855550
REM CASTEP 20.1 from code version af48c487+ pr-geom-scf-spinfix Tue Jun 2 15:39:59 2020 +0100
REM Functional Perdew Burke Ernzerhof Relativity Koelling-Harmon Dispersion off
REM Cut-off 340.0000 eV Grid scale 1.7500 Gmax 16.5316 1/A FBSC none
REM MP grid 3 2 2 Offset 0.000 0.000 0.000 No. kpts 4 Spacing 0.07
REM Total runtime: 9110.56 s
REM Overall efficiency: 77.5714 %
REM
REM 4LiFeSO4F.cell (79c870615ff1d88195b1fe3fe805288c)
REM
REM compiler GCC version 4.9.2
REM options -cpp -iprefix /lustre/shared/ucl/apps/gcc/4.9.2/bin/../lib/gcc/x86_64-unknown-linux-gnu/4.9.2/ -mtune=corei7 -march=x86-64 -g -Og
REM COMMAND_LINE
REM seed 1582426437 -680180521 -298178897 286950996 -1022963738 2013013875 -162303184 -390107483 315765347 965897651 -1830226416 -1789010334
REM
REM S 3|1.8|5|6|7|30:31:32(qc=5)
REM O 2|1.5|12|13|15|20:21(qc=5)
REM Li 1|1.3|8|9|10|10U:20(qc=5)
REM Fe 3|2.2|2.0|1.0|8|9|10|40:41:32(qc=5)
REM F 2|1.6|10|12|13|20:21(qc=5)
REM 
CELL 1.54180    6.07584    8.90053    8.90053  114.76096   90.00000   90.00000
LATT -1
SFAC Li O  F  S  Fe 
Li     1  0.0708260000000  0.2933730000000 -0.1233470000000 1.0  -0.02
Li     1 -0.0708260000000 -0.1233470000000  0.2933730000000 1.0  -0.02
Li     1 -0.4291740000000  0.3766530000000 -0.2066270000000 1.0  -0.02
Li     1  0.4291740000000 -0.2066270000000  0.3766530000000 1.0  -0.02
O      2  0.0395240000000  0.5488190000000  0.2578880000000 1.0   0.08
O      2  0.2201910000000  0.2887770000000  0.0728490000000 1.0   0.01
O      2  0.2534480000000  0.3849970000000  0.3745720000000 1.0   0.06
O      2  0.4374760000000  0.5409120000000  0.2387860000000 1.0   0.07
O      2 -0.0395240000000  0.2578880000000  0.5488190000000 1.0   0.08
O      2 -0.2201910000000  0.0728490000000  0.2887770000000 1.0   0.01
O      2 -0.2534480000000  0.3745720000000  0.3849970000000 1.0   0.06
O      2 -0.4374760000000  0.2387860000000  0.5409120000000 1.0   0.07
O      2 -0.4604760000000 -0.2421120000000  0.0488190000000 1.0   0.08
O      2 -0.2798090000000 -0.4271510000000 -0.2112230000000 1.0   0.01
O      2 -0.2465520000000 -0.1254280000000 -0.1150030000000 1.0   0.06
O      2 -0.0625240000000 -0.2612140000000  0.0409120000000 1.0   0.07
O      2  0.4604760000000  0.0488190000000 -0.2421120000000 1.0   0.08
O      2  0.2798090000000 -0.2112230000000 -0.4271510000000 1.0   0.01
O      2  0.2465520000000 -0.1150030000000 -0.1254280000000 1.0   0.06
O      2  0.0625240000000  0.0409120000000 -0.2612140000000 1.0   0.07
F      3  0.2308130000000 -0.0453440000000  0.3488620000000 1.0   0.08
F      3 -0.2308130000000  0.3488620000000 -0.0453440000000 1.0   0.08
F      3 -0.2691870000000 -0.1511380000000  0.4546560000000 1.0   0.08
F      3  0.2691870000000  0.4546560000000 -0.1511380000000 1.0   0.08
S      4  0.2351280000000  0.4346530000000  0.2334480000000 1.0   0.01
S      4 -0.2351280000000  0.2334480000000  0.4346530000000 1.0   0.01
S      4 -0.2648720000000 -0.2665520000000 -0.0653470000000 1.0   0.01
S      4  0.2648720000000 -0.0653470000000 -0.2665520000000 1.0   0.01
Fe     5  0.2403390000000 -0.3048080000000 -0.0615850000000 1.0   3.71
Fe     5 -0.2403390000000 -0.0615850000000 -0.3048080000000 1.0   3.71
Fe     5 -0.2596610000000  0.4384150000000  0.1951920000000 1.0   3.71
Fe     5  0.2596610000000  0.1951920000000  0.4384150000000 1.0   3.71
END
