TITL 4LiFeSO4F-200804-092114-6435d2 0.0187 448.749410 -1.51308075E+004 -15.9993 16.2258 32 (Pm) n - 1
REM
REM Run started: Tue, 04 Aug 2020 22:30:52 +0100 in /lustre/scratch/uccabz1/launch_tmp/launcher_2020-08-04-08-21-07-244897
REM CASTEP 20.1 from code version af48c487+ pr-geom-scf-spinfix Tue Jun 2 15:39:59 2020 +0100
REM Functional Perdew Burke Ernzerhof Relativity Koelling-Harmon Dispersion off
REM Cut-off 340.0000 eV Grid scale 1.7500 Gmax 16.5316 1/A FBSC none
REM MP grid 3 3 2 Offset 0.000 0.000 0.000 No. kpts 5 Spacing 0.07
REM Total runtime: 47517.5 s
REM Overall efficiency: 74.25 %
REM
REM 4LiFeSO4F.cell (79c870615ff1d88195b1fe3fe805288c)
REM
REM compiler GCC version 4.9.2
REM options -cpp -iprefix /lustre/shared/ucl/apps/gcc/4.9.2/bin/../lib/gcc/x86_64-unknown-linux-gnu/4.9.2/ -mtune=corei7 -march=x86-64 -g -Og
REM COMMAND_LINE
REM seed -1487699363 600722935 -1858709087 -94650122 2139009204 -1119747363 1135564306 1642582443 24952897 579308799 1661540783 104271602
REM
REM S 3|1.8|5|6|7|30:31:32(qc=5)
REM O 2|1.5|12|13|15|20:21(qc=5)
REM Li 1|1.3|8|9|10|10U:20(qc=5)
REM Fe 3|2.2|2.0|1.0|8|9|10|40:41:32(qc=5)
REM F 2|1.6|10|12|13|20:21(qc=5)
REM 
CELL 1.54180    6.82039    5.99085   11.15549   90.00000   90.00000  100.09994
LATT -1
SFAC Li O  F  S  Fe 
Li     1 -0.2374830000000 -0.0772370000000  0.0000000000000 1.0   0.04
Li     1  0.2580110000000 -0.5540080000000  0.5000000000000 1.0   0.01
Li     1 -0.4121540000000  0.0732020000000 -0.5000000000000 1.0   0.01
Li     1  0.0935380000000  0.3587280000000  0.0000000000000 1.0   0.02
O      2 -0.2652260000000 -0.1882190000000  0.1650570000000 1.0  -0.03
O      2 -0.3992910000000 -0.1583290000000  0.3709480000000 1.0  -0.01
O      2 -0.5524050000000 -0.4627990000000  0.2361630000000 1.0  -0.06
O      2 -0.5921740000000 -0.0734850000000  0.1918970000000 1.0  -0.08
O      2 -0.2652260000000 -0.1882190000000 -0.1650570000000 1.0  -0.03
O      2 -0.3992910000000 -0.1583290000000 -0.3709480000000 1.0  -0.01
O      2 -0.5524050000000 -0.4627990000000 -0.2361630000000 1.0  -0.06
O      2 -0.5921740000000 -0.0734850000000 -0.1918970000000 1.0  -0.08
O      2  0.0558340000000  0.4938730000000  0.3690420000000 1.0  -0.02
O      2  0.0340430000000  0.5187090000000  0.1496810000000 1.0  -0.06
O      2 -0.2362750000000  0.2813070000000  0.2632050000000 1.0  -0.04
O      2  0.0922250000000  0.1660600000000  0.2425820000000 1.0  -0.07
O      2  0.0558340000000  0.4938730000000 -0.3690420000000 1.0  -0.02
O      2  0.0340430000000  0.5187090000000 -0.1496810000000 1.0  -0.06
O      2 -0.2362750000000  0.2813070000000 -0.2632050000000 1.0  -0.04
O      2  0.0922250000000  0.1660600000000 -0.2425820000000 1.0  -0.07
F      3 -0.3226440000000  0.1988100000000  0.0000000000000 1.0  -0.10
F      3  0.4141820000000  0.2494300000000  0.5000000000000 1.0  -0.00
F      3  0.0409040000000 -0.0348510000000  0.0000000000000 1.0  -0.07
F      3  0.3571720000000  0.3391400000000  0.0000000000000 1.0  -0.10
S      4 -0.4468070000000 -0.2211290000000  0.2459590000000 1.0  -0.01
S      4 -0.4468070000000 -0.2211290000000 -0.2459590000000 1.0  -0.01
S      4 -0.0173310000000  0.3633600000000  0.2610590000000 1.0  -0.01
S      4 -0.0173310000000  0.3633600000000 -0.2610590000000 1.0  -0.01
Fe     5  0.5092940000000  0.2662240000000  0.1505760000000 1.0  -3.78
Fe     5  0.5092940000000  0.2662240000000 -0.1505760000000 1.0  -3.78
Fe     5  0.0694310000000 -0.1480970000000 -0.1859030000000 1.0  -3.73
Fe     5  0.0694310000000 -0.1480970000000  0.1859030000000 1.0  -3.73
END
