TITL 4LiFeSO4F-200818-020827-988b91 0.0374 463.915605 -1.51309597E+004 16.0000 16.3380 32 (P2) n - 1
REM
REM Run started: Wed, 19 Aug 2020 07:55:04 +0100 in /lustre/scratch/uccabz1/launch_tmp/launcher_2020-08-18-01-08-19-700090
REM CASTEP 20.1 from code version af48c487+ pr-geom-scf-spinfix Tue Jun 2 15:39:59 2020 +0100
REM Functional Perdew Burke Ernzerhof Relativity Koelling-Harmon Dispersion off
REM Cut-off 340.0000 eV Grid scale 1.7500 Gmax 16.5316 1/A FBSC none
REM MP grid 3 2 2 Offset 0.000 0.000 0.000 No. kpts 4 Spacing 0.07
REM Total runtime: 94255.3 s
REM Overall efficiency: 70.6667 %
REM
REM 4LiFeSO4F.cell (79c870615ff1d88195b1fe3fe805288c)
REM
REM compiler GCC version 4.9.2
REM options -cpp -iprefix /lustre/shared/ucl/apps/gcc/4.9.2/bin/../lib/gcc/x86_64-unknown-linux-gnu/4.9.2/ -mtune=corei7 -march=x86-64 -g -Og
REM COMMAND_LINE
REM seed 1053895544 81258544 2071481291 1635710010 1704882172 -1251836261 1742282052 715619152 769829681 1299075403 -1285378344 -765558856
REM
REM S 3|1.8|5|6|7|30:31:32(qc=5)
REM O 2|1.5|12|13|15|20:21(qc=5)
REM Li 1|1.3|8|9|10|10U:20(qc=5)
REM Fe 3|2.2|2.0|1.0|8|9|10|40:41:32(qc=5)
REM F 2|1.6|10|12|13|20:21(qc=5)
REM 
CELL 1.54180    5.89077    8.78514   10.20004  118.49567   90.00000   90.00000
LATT -1
SFAC Li O  F  S  Fe 
Li     1  0.0142740000000 -0.2907450000000  0.2777810000000 1.0  -0.03
Li     1  0.0142740000000  0.2907450000000 -0.2777810000000 1.0  -0.03
Li     1  0.2042020000000  0.2495320000000  0.4057690000000 1.0  -0.02
Li     1  0.2042020000000 -0.2495320000000 -0.4057690000000 1.0  -0.02
O      2  0.3784240000000  0.4119840000000  0.3467370000000 1.0   0.06
O      2  0.2200250000000  0.1730340000000  0.1336040000000 1.0   0.08
O      2  0.5035880000000  0.3532700000000  0.0926240000000 1.0   0.05
O      2  0.1190560000000  0.4673870000000  0.1813240000000 1.0   0.01
O      2  0.3784240000000 -0.4119840000000 -0.3467370000000 1.0   0.06
O      2  0.2200250000000 -0.1730340000000 -0.1336040000000 1.0   0.08
O      2  0.5035880000000 -0.3532700000000 -0.0926240000000 1.0   0.05
O      2  0.1190560000000 -0.4673870000000 -0.1813240000000 1.0   0.01
O      2 -0.1520770000000  0.2926620000000  0.4115090000000 1.0   0.05
O      2 -0.0240980000000 -0.0006890000000  0.3333350000000 1.0   0.01
O      2 -0.2385360000000  0.0617350000000  0.1557230000000 1.0   0.07
O      2 -0.4419650000000  0.0679450000000  0.3635340000000 1.0   0.06
O      2 -0.1520770000000 -0.2926620000000 -0.4115090000000 1.0   0.05
O      2 -0.0240980000000  0.0006890000000 -0.3333350000000 1.0   0.01
O      2 -0.2385360000000 -0.0617350000000 -0.1557230000000 1.0   0.07
O      2 -0.4419650000000 -0.0679450000000 -0.3635340000000 1.0   0.06
F      3 -0.2636700000000  0.3246920000000 -0.1841340000000 1.0   0.12
F      3 -0.2636700000000 -0.3246920000000  0.1841340000000 1.0   0.12
F      3  0.2434680000000  0.2213220000000  0.5779720000000 1.0   0.08
F      3  0.2434680000000 -0.2213220000000 -0.5779720000000 1.0   0.08
S      4  0.3042930000000  0.3564410000000  0.1848920000000 1.0   0.02
S      4  0.3042930000000 -0.3564410000000 -0.1848920000000 1.0   0.02
S      4 -0.2133160000000  0.0987060000000  0.3144450000000 1.0   0.02
S      4 -0.2133160000000 -0.0987060000000 -0.3144450000000 1.0   0.02
Fe     5  0.3923350000000  0.0000000000000 -0.5000000000000 1.0   3.76
Fe     5 -0.3654380000000 -0.5000000000000  0.5000000000000 1.0   3.62
Fe     5 -0.0002540000000  0.0000000000000  0.0000000000000 1.0   3.66
Fe     5 -0.3724320000000 -0.5000000000000  0.0000000000000 1.0   3.78
END
