TITL 4LiFeSO4F-200804-100130-6de74b 0.0584 479.126053 -1.51209742E+004 -15.9802 16.3871 32 (P21212) n - 1
REM
REM Run started: Wed, 05 Aug 2020 01:38:38 +0100 in /lustre/scratch/uccabz1/launch_tmp/launcher_2020-08-04-17-47-56-333578
REM CASTEP 20.1 from code version af48c487+ pr-geom-scf-spinfix Tue Jun 2 15:39:59 2020 +0100
REM Functional Perdew Burke Ernzerhof Relativity Koelling-Harmon Dispersion off
REM Cut-off 340.0000 eV Grid scale 1.7500 Gmax 16.5316 1/A FBSC none
REM MP grid 2 3 2 Offset 0.000 0.000 0.000 No. kpts 2 Spacing 0.07
REM Total runtime: 24713.1 s
REM Overall efficiency: 73.25 %
REM
REM
REM
REM compiler GCC version 4.9.2
REM options -cpp -iprefix /lustre/shared/ucl/apps/gcc/4.9.2/bin/../lib/gcc/x86_64-unknown-linux-gnu/4.9.2/ -mtune=corei7 -march=x86-64 -g -Og
REM COMMAND_LINE
REM seed 1194689361 2002734892 -126513858 1251386637 2040921059 1107513603 879377534 -415529017 940945952 1649535220 -1499920005 -282931645
REM
REM S 3|1.8|5|6|7|30:31:32(qc=5)
REM O 2|1.5|12|13|15|20:21(qc=5)
REM Li 1|1.3|8|9|10|10U:20(qc=5)
REM Fe 3|2.2|2.0|1.0|8|9|10|40:41:32(qc=5)
REM F 2|1.6|10|12|13|20:21(qc=5)
REM 
CELL 1.54180    7.52021    6.75298    9.43462   90.00000   90.00000   90.00000
LATT -1
SFAC Li O  F  S  Fe 
Li     1  0.3102810000000  0.2923780000000  0.1069530000000 1.0   0.01
Li     1 -0.3102810000000 -0.2923780000000  0.1069530000000 1.0   0.01
Li     1  0.1897190000000 -0.2076220000000 -0.1069530000000 1.0   0.01
Li     1 -0.1897190000000  0.2076220000000 -0.1069530000000 1.0   0.01
O      2 -0.2546050000000  0.0843590000000  0.2099190000000 1.0  -0.07
O      2 -0.1973020000000  0.3846290000000  0.0686760000000 1.0  -0.01
O      2 -0.2282730000000  0.3935110000000  0.3376720000000 1.0  -0.13
O      2  0.2546050000000 -0.0843590000000  0.2099190000000 1.0  -0.07
O      2  0.1973020000000 -0.3846290000000  0.0686760000000 1.0  -0.01
O      2  0.2282730000000 -0.3935110000000  0.3376720000000 1.0  -0.13
O      2 -0.2453950000000 -0.4156410000000 -0.2099190000000 1.0  -0.07
O      2 -0.3026980000000 -0.1153710000000 -0.0686760000000 1.0  -0.01
O      2 -0.2717270000000 -0.1064890000000 -0.3376720000000 1.0  -0.13
O      2  0.2453950000000  0.4156410000000 -0.2099190000000 1.0  -0.07
O      2  0.3026980000000  0.1153710000000 -0.0686760000000 1.0  -0.01
O      2  0.2717270000000  0.1064890000000 -0.3376720000000 1.0  -0.13
O      2 -0.0000000000000 -0.0000000000000 -0.5567250000000 1.0  -0.57
O      2 -0.5000000000000  0.5000000000000  0.5567250000000 1.0  -0.57
O      2 -0.0000000000000 -0.0000000000000 -0.1779760000000 1.0  -0.05
O      2 -0.5000000000000 -0.5000000000000  0.1779760000000 1.0  -0.05
F      3 -0.1061130000000 -0.2596190000000  0.2376840000000 1.0  -0.12
F      3  0.1061130000000  0.2596190000000  0.2376840000000 1.0  -0.12
F      3 -0.3938870000000  0.2403810000000 -0.2376840000000 1.0  -0.12
F      3  0.3938870000000 -0.2403810000000 -0.2376840000000 1.0  -0.12
S      4 -0.3010540000000  0.3086090000000  0.1949950000000 1.0  -0.02
S      4  0.3010540000000 -0.3086090000000  0.1949950000000 1.0  -0.02
S      4 -0.1989460000000 -0.1913910000000 -0.1949950000000 1.0  -0.02
S      4  0.1989460000000  0.1913910000000 -0.1949950000000 1.0  -0.02
Fe     5 -0.0000000000000 -0.0000000000000  0.2720990000000 1.0  -2.87
Fe     5 -0.5000000000000 -0.5000000000000 -0.2720990000000 1.0  -2.87
Fe     5 -0.5000000000000 -0.0000000000000 -0.3596510000000 1.0  -3.79
Fe     5 -0.0000000000000 -0.5000000000000  0.3596510000000 1.0  -3.79
END
