TITL 4LiFeSO4F-200804-074137-1235fb 0.0331 392.787600 -1.51317912E+004 16.0000 16.3266 32 (C2/c) n - 1
REM
REM Run started: Tue, 04 Aug 2020 10:15:52 +0100 in /lustre/scratch/uccabz1/launch_tmp/launcher_2020-08-04-06-41-34-825965
REM CASTEP 20.1 from code version af48c487+ pr-geom-scf-spinfix Tue Jun 2 15:39:59 2020 +0100
REM Functional Perdew Burke Ernzerhof Relativity Koelling-Harmon Dispersion off
REM Cut-off 340.0000 eV Grid scale 1.7500 Gmax 16.5316 1/A FBSC none
REM MP grid 3 2 2 Offset 0.000 0.000 0.000 No. kpts 6 Spacing 0.07
REM Total runtime: 9388.67 s
REM Overall efficiency: 78.8571 %
REM
REM 4LiFeSO4F.cell (79c870615ff1d88195b1fe3fe805288c)
REM
REM compiler GCC version 4.9.2
REM options -cpp -iprefix /lustre/shared/ucl/apps/gcc/4.9.2/bin/../lib/gcc/x86_64-unknown-linux-gnu/4.9.2/ -mtune=corei7 -march=x86-64 -g -Og
REM COMMAND_LINE
REM seed -271763387 -717365089 -1965934306 -725225709 1808661338 -1387116834 1732619610 -1342138494 -275588054 2012666331 -492247276 1638046608
REM
REM S 3|1.8|5|6|7|30:31:32(qc=5)
REM O 2|1.5|12|13|15|20:21(qc=5)
REM Li 1|1.3|8|9|10|10U:20(qc=5)
REM Fe 3|2.2|2.0|1.0|8|9|10|40:41:32(qc=5)
REM F 2|1.6|10|12|13|20:21(qc=5)
REM 
CELL 1.54180    5.29590    9.24645    9.36206   65.58313   73.57030   73.35895
LATT -1
SFAC Li O  F  S  Fe 
Li     1 -0.2330080000000 -0.4842030000000  0.3029710000000 1.0  -0.01
Li     1 -0.4142400000000 -0.0157970000000  0.1970290000000 1.0  -0.01
Li     1  0.2330070000000  0.4842030000000 -0.3029710000000 1.0  -0.01
Li     1  0.4142390000000  0.0157970000000 -0.1970290000000 1.0  -0.01
O      2 -0.2922410000000  0.2001610000000  0.0749370000000 1.0   0.05
O      2  0.0734510000000  0.2606580000000  0.1377320000000 1.0   0.06
O      2 -0.0617050000000  0.4138670000000 -0.1265590000000 1.0   0.05
O      2  0.1819590000000  0.1314650000000 -0.0597140000000 1.0   0.02
O      2 -0.0171430000000  0.2998390000000 -0.5749370000000 1.0   0.05
O      2  0.4718410000000  0.2393420000000 -0.6377320000000 1.0   0.06
O      2  0.2256030000000  0.0861330000000 -0.3734410000000 1.0   0.05
O      2  0.2537100000000  0.3685350000000 -0.4402860000000 1.0   0.02
O      2  0.2922410000000 -0.2001610000000 -0.0749370000000 1.0   0.05
O      2 -0.0734510000000 -0.2606580000000 -0.1377320000000 1.0   0.06
O      2  0.0617050000000 -0.4138670000000  0.1265590000000 1.0   0.05
O      2 -0.1819600000000 -0.1314650000000  0.0597140000000 1.0   0.02
O      2  0.0171430000000 -0.2998390000000  0.5749370000000 1.0   0.05
O      2 -0.4718410000000 -0.2393420000000  0.6377320000000 1.0   0.06
O      2 -0.2256030000000 -0.0861330000000  0.3734410000000 1.0   0.05
O      2 -0.2537100000000 -0.3685350000000  0.4402860000000 1.0   0.02
F      3 -0.2583170000000  0.0256850000000 -0.3584480000000 1.0   0.13
F      3  0.4089200000000  0.4743150000000 -0.1415520000000 1.0   0.13
F      3  0.2583170000000 -0.0256850000000  0.3584480000000 1.0   0.13
F      3 -0.4089210000000 -0.4743150000000  0.1415520000000 1.0   0.13
S      4 -0.0189420000000  0.2481370000000  0.0034120000000 1.0   0.01
S      4  0.2326070000000  0.2518630000000 -0.5034120000000 1.0   0.01
S      4  0.0189420000000 -0.2481370000000 -0.0034120000000 1.0   0.01
S      4 -0.2326070000000 -0.2518630000000  0.5034120000000 1.0   0.01
Fe     5  0.1178960000000 -0.1050590000000 -0.3951880000000 1.0   3.70
Fe     5 -0.3823510000000  0.6050590000000 -0.1048120000000 1.0   3.70
Fe     5 -0.1178960000000  0.1050590000000  0.3951880000000 1.0   3.70
Fe     5  0.3823510000000 -0.6050590000000  0.1048120000000 1.0   3.70
END
