TITL 4LiFeSO4F-200817-225241-c5e0ab 0.0291 443.964593 -1.51288840E+004 16.0000 16.2395 32 (Pba2) n - 1
REM
REM Run started: Tue, 18 Aug 2020 01:02:47 +0100 in /scratch/scratch/uccabz1/launch_tmp/launcher_2020-08-17-21-52-39-189816
REM CASTEP 19.11| from code version Version unavailable
REM Functional Perdew Burke Ernzerhof Relativity Koelling-Harmon Dispersion off
REM Cut-off 340.0000 eV Grid scale 1.7500 Gmax 16.5316 1/A FBSC none
REM MP grid 3 3 1 Offset 0.000 0.000 0.000 No. kpts 4 Spacing 0.07
REM Total runtime: 7897.63 s
REM Overall efficiency: 75.3333 %
REM
REM 4LiFeSO4F.cell (79c870615ff1d88195b1fe3fe805288c)
REM
REM compiler GCC version 4.9.2
REM options -cpp -iprefix /scratch/UCL/applications/gcc/4.9.2/bin/../lib/gcc/x86_64-unknown-linux-gnu/4.9.2/ -mtune=corei7 -march=x86-64 -g -O2
REM COMMAND_LINE
REM seed -1448699737 -1757034488 -139559626 -18875956 -107841935 -112577711 815553135 906507184 726275232 -607728975 -235745148 1648856402
REM
REM S 3|1.8|5|6|7|30:31:32(qc=5)
REM O 2|1.5|12|13|15|20:21(qc=5)
REM Li 1|1.3|8|9|10|10U:20(qc=5)
REM Fe 3|2.2|2.0|1.0|8|9|10|40:41:32(qc=5)
REM F 2|1.6|10|12|13|20:21(qc=5)
REM 
CELL 1.54180    4.86383    5.84691   15.61148   90.00000   90.00000   90.00000
LATT -1
SFAC Li O  F  S  Fe 
Li     1  0.2969110000000  0.3292110000000  0.0508550000000 1.0  -0.01
Li     1  0.2969110000000 -0.3292110000000 -0.0508550000000 1.0  -0.01
Li     1  0.2969110000000  0.1707890000000 -0.4491450000000 1.0  -0.01
Li     1  0.2969110000000 -0.1707890000000  0.4491450000000 1.0  -0.01
O      2  0.0094810000000  0.1431270000000  0.2119110000000 1.0   0.01
O      2 -0.3944820000000  0.0543210000000  0.1181040000000 1.0   0.08
O      2 -0.0900580000000  0.3713570000000  0.0818750000000 1.0   0.01
O      2 -0.4051690000000  0.3952720000000  0.2067740000000 1.0   0.08
O      2  0.0094810000000 -0.1431270000000 -0.2119110000000 1.0   0.01
O      2 -0.3944820000000 -0.0543210000000 -0.1181040000000 1.0   0.08
O      2 -0.0900580000000 -0.3713570000000 -0.0818750000000 1.0   0.01
O      2 -0.4051690000000 -0.3952720000000 -0.2067740000000 1.0   0.08
O      2  0.0094810000000  0.3568730000000 -0.2880890000000 1.0   0.01
O      2 -0.3944820000000  0.4456790000000 -0.3818960000000 1.0   0.08
O      2 -0.0900580000000  0.1286430000000 -0.4181250000000 1.0   0.01
O      2 -0.4051690000000  0.1047280000000 -0.2932260000000 1.0   0.08
O      2  0.0094810000000 -0.3568730000000  0.2880890000000 1.0   0.01
O      2 -0.3944820000000 -0.4456790000000  0.3818960000000 1.0   0.08
O      2 -0.0900580000000 -0.1286430000000  0.4181250000000 1.0   0.01
O      2 -0.4051690000000 -0.1047280000000  0.2932260000000 1.0   0.08
F      3  0.3637220000000 -0.1481170000000 -0.4330030000000 1.0   0.09
F      3  0.3637220000000  0.1481170000000  0.4330030000000 1.0   0.09
F      3  0.3637220000000 -0.3518830000000  0.0669970000000 1.0   0.09
F      3  0.3637220000000  0.3518830000000 -0.0669970000000 1.0   0.09
S      4 -0.2003860000000  0.2377770000000  0.1542260000000 1.0   0.01
S      4 -0.2003860000000 -0.2377770000000 -0.1542260000000 1.0   0.01
S      4 -0.2003860000000  0.2622230000000 -0.3457740000000 1.0   0.01
S      4 -0.2003860000000 -0.2622230000000  0.3457740000000 1.0   0.01
Fe     5  0.5163310000000  0.2523950000000  0.3266420000000 1.0   3.74
Fe     5  0.5163310000000 -0.2523950000000 -0.3266420000000 1.0   3.74
Fe     5  0.5163310000000  0.2476050000000 -0.1733580000000 1.0   3.74
Fe     5  0.5163310000000 -0.2476050000000  0.1733580000000 1.0   3.74
END
