TITL 4LiFeSO4F-200804-084609-17fe92 -0.0167 463.168873 -1.51318202E+004 16.0000 16.3071 32 (P-1) n - 1
REM
REM Run started: Wed, 05 Aug 2020 09:47:21 +0100 in /lustre/scratch/uccabz1/launch_tmp/launcher_2020-08-04-07-46-06-525825
REM CASTEP 20.1 from code version af48c487+ pr-geom-scf-spinfix Tue Jun 2 15:39:59 2020 +0100
REM Functional Perdew Burke Ernzerhof Relativity Koelling-Harmon Dispersion off
REM Cut-off 340.0000 eV Grid scale 1.7500 Gmax 16.5316 1/A FBSC none
REM MP grid 3 3 3 Offset 0.000 0.000 0.000 No. kpts 14 Spacing 0.07
REM Total runtime: 101062 s
REM Overall efficiency: 98.1667 %
REM
REM 4LiFeSO4F.cell (79c870615ff1d88195b1fe3fe805288c)
REM
REM compiler GCC version 4.9.2
REM options -cpp -iprefix /lustre/shared/ucl/apps/gcc/4.9.2/bin/../lib/gcc/x86_64-unknown-linux-gnu/4.9.2/ -mtune=corei7 -march=x86-64 -g -Og
REM COMMAND_LINE
REM seed -1408497583 701202313 2012764690 1077466759 1241371067 1855167876 -1741134489 -1341743621 1182813615 -247229440 1273233096 603962509
REM
REM S 3|1.8|5|6|7|30:31:32(qc=5)
REM O 2|1.5|12|13|15|20:21(qc=5)
REM Li 1|1.3|8|9|10|10U:20(qc=5)
REM Fe 3|2.2|2.0|1.0|8|9|10|40:41:32(qc=5)
REM F 2|1.6|10|12|13|20:21(qc=5)
REM 
CELL 1.54180    9.51263    7.60588    9.27227  104.14035  124.05943  105.89864
LATT -1
SFAC Li O  F  S  Fe 
Li     1 -0.5141520000000 -0.6901130000000 -0.2036530000000 1.0  -0.02
Li     1  0.5141520000000  0.6901130000000  0.2036530000000 1.0  -0.02
Li     1  0.5286780000000  0.3113020000000  0.1891320000000 1.0  -0.01
Li     1 -0.5286780000000 -0.3113020000000 -0.1891320000000 1.0  -0.01
O      2 -0.9444360000000 -0.3321690000000 -0.6000010000000 1.0   0.08
O      2 -0.6057290000000 -0.1281690000000 -0.2701410000000 1.0   0.02
O      2 -0.8881810000000 -0.1815830000000 -0.2945000000000 1.0   0.09
O      2 -0.7827100000000  0.0507790000000 -0.4018890000000 1.0   0.03
O      2  0.9444360000000  0.3321690000000  0.6000010000000 1.0   0.08
O      2  0.6057290000000  0.1281690000000  0.2701410000000 1.0   0.02
O      2  0.8881810000000  0.1815830000000  0.2945000000000 1.0   0.09
O      2  0.7827100000000 -0.0507790000000  0.4018890000000 1.0   0.03
O      2  0.0626820000000 -0.1211290000000  0.1787450000000 1.0   0.07
O      2 -0.0651850000000 -0.2911400000000 -0.1639210000000 1.0   0.08
O      2 -0.2731930000000 -0.2213430000000 -0.1088370000000 1.0   0.01
O      2 -0.1966130000000 -0.4981470000000 -0.0568750000000 1.0   0.04
O      2 -0.0626820000000  0.1211290000000 -0.1787450000000 1.0   0.07
O      2  0.0651850000000  0.2911400000000  0.1639210000000 1.0   0.08
O      2  0.2731930000000  0.2213430000000  0.1088370000000 1.0   0.01
O      2  0.1966130000000  0.4981470000000  0.0568750000000 1.0   0.04
F      3 -0.6428930000000 -0.5933870000000 -0.3853770000000 1.0   0.09
F      3  0.6428930000000  0.5933870000000  0.3853770000000 1.0   0.09
F      3  0.3886800000000 -0.3377870000000 -0.0465260000000 1.0   0.06
F      3 -0.3886800000000  0.3377870000000  0.0465260000000 1.0   0.06
S      4 -0.8009450000000 -0.1471280000000 -0.3918230000000 1.0   0.02
S      4  0.8009450000000  0.1471280000000  0.3918230000000 1.0   0.02
S      4 -0.1227460000000 -0.2836330000000 -0.0369610000000 1.0   0.02
S      4  0.1227460000000  0.2836330000000  0.0369610000000 1.0   0.02
Fe     5  0.1297900000000  0.1540320000000  0.3598800000000 1.0   3.72
Fe     5 -0.1297900000000 -0.1540320000000 -0.3598800000000 1.0   3.72
Fe     5  0.1188770000000 -0.3907870000000 -0.1639190000000 1.0   3.71
Fe     5 -0.1188770000000  0.3907870000000  0.1639190000000 1.0   3.71
END
