TITL 4LiFeSO4F-200818-173605-7ca1fb -0.0362 483.151139 -1.51289472E+004 16.0000 16.2322 32 (P42) n - 1
REM
REM Run started: Tue, 18 Aug 2020 18:28:57 +0100 in /lustre/scratch/uccabz1/launch_tmp/launcher_2020-08-18-16-36-03-673196
REM CASTEP 20.1 from code version af48c487+ pr-geom-scf-spinfix Tue Jun 2 15:39:59 2020 +0100
REM Functional Perdew Burke Ernzerhof Relativity Koelling-Harmon Dispersion off
REM Cut-off 340.0000 eV Grid scale 1.7500 Gmax 16.5316 1/A FBSC none
REM MP grid 3 2 2 Offset 0.000 0.000 0.000 No. kpts 2 Spacing 0.07
REM Total runtime: 3316.94 s
REM Overall efficiency: 73.7143 %
REM
REM 4LiFeSO4F.cell (79c870615ff1d88195b1fe3fe805288c)
REM
REM compiler GCC version 4.9.2
REM options -cpp -iprefix /lustre/shared/ucl/apps/gcc/4.9.2/bin/../lib/gcc/x86_64-unknown-linux-gnu/4.9.2/ -mtune=corei7 -march=x86-64 -g -Og
REM COMMAND_LINE
REM seed -280918263 1696900561 1102774966 -1353076106 1722238296 -493054227 -1262088958 -315350564 1660594586 528583454 -1972253589 1336035222
REM
REM S 3|1.8|5|6|7|30:31:32(qc=5)
REM O 2|1.5|12|13|15|20:21(qc=5)
REM Li 1|1.3|8|9|10|10U:20(qc=5)
REM Fe 3|2.2|2.0|1.0|8|9|10|40:41:32(qc=5)
REM F 2|1.6|10|12|13|20:21(qc=5)
REM 
CELL 1.54180    4.96938    9.86030    9.86030   90.00000   90.00000   90.00000
LATT -1
SFAC Li O  F  S  Fe 
Li     1 -0.4324130000000  0.1929210000000 -0.2906660000000 1.0  -0.01
Li     1 -0.4324130000000 -0.1929210000000  0.2906660000000 1.0  -0.01
Li     1  0.0675870000000  0.2906660000000  0.1929210000000 1.0  -0.01
Li     1  0.0675870000000 -0.2906660000000 -0.1929210000000 1.0  -0.01
O      2 -0.4569420000000  0.4331670000000  0.3541650000000 1.0   0.03
O      2 -0.6146420000000  0.4111460000000  0.1192790000000 1.0   0.07
O      2 -0.1404950000000  0.4818110000000  0.1679810000000 1.0   0.06
O      2 -0.5252600000000  0.6366790000000  0.2016480000000 1.0   0.06
O      2 -0.4569420000000 -0.4331670000000 -0.3541650000000 1.0   0.03
O      2 -0.6146420000000 -0.4111460000000 -0.1192790000000 1.0   0.07
O      2 -0.1404950000000 -0.4818110000000 -0.1679810000000 1.0   0.06
O      2 -0.5252600000000 -0.6366790000000 -0.2016480000000 1.0   0.06
O      2  0.0430580000000 -0.3541650000000  0.4331670000000 1.0   0.03
O      2 -0.1146420000000 -0.1192790000000  0.4111460000000 1.0   0.07
O      2  0.3595050000000 -0.1679810000000  0.4818110000000 1.0   0.06
O      2 -0.0252600000000 -0.2016480000000  0.6366790000000 1.0   0.06
O      2  0.0430580000000  0.3541650000000 -0.4331670000000 1.0   0.03
O      2 -0.1146420000000  0.1192790000000 -0.4111460000000 1.0   0.07
O      2  0.3595050000000  0.1679810000000 -0.4818110000000 1.0   0.06
O      2 -0.0252600000000  0.2016480000000 -0.6366790000000 1.0   0.06
F      3 -0.0057670000000 -0.2453500000000 -0.0123640000000 1.0   0.13
F      3 -0.0057670000000  0.2453500000000  0.0123640000000 1.0   0.13
F      3 -0.5057670000000  0.0123640000000 -0.2453500000000 1.0   0.13
F      3 -0.5057670000000 -0.0123640000000  0.2453500000000 1.0   0.13
S      4 -0.4297920000000  0.4888300000000  0.2187660000000 1.0   0.01
S      4 -0.4297920000000 -0.4888300000000 -0.2187660000000 1.0   0.01
S      4  0.0702080000000 -0.2187660000000  0.4888300000000 1.0   0.01
S      4  0.0702080000000  0.2187660000000 -0.4888300000000 1.0   0.01
Fe     5  0.1430490000000 -0.3964810000000  0.0753620000000 1.0   3.67
Fe     5  0.1430490000000  0.3964810000000 -0.0753620000000 1.0   3.67
Fe     5 -0.3569510000000 -0.0753620000000 -0.3964810000000 1.0   3.67
Fe     5 -0.3569510000000  0.0753620000000  0.3964810000000 1.0   3.67
END
