TITL 4LiFeSO4F-200804-072004-b9adc3 -0.0186 461.711453 -1.51314814E+004 16.0000 16.2508 32 (Pna21) n - 1
REM
REM Run started: Tue, 04 Aug 2020 10:01:29 +0100 in /lustre/scratch/uccabz1/launch_tmp/launcher_2020-08-04-06-19-54-573011
REM CASTEP 20.1 from code version af48c487+ pr-geom-scf-spinfix Tue Jun 2 15:39:59 2020 +0100
REM Functional Perdew Burke Ernzerhof Relativity Koelling-Harmon Dispersion off
REM Cut-off 340.0000 eV Grid scale 1.7500 Gmax 16.5316 1/A FBSC none
REM MP grid 3 2 2 Offset 0.000 0.000 0.000 No. kpts 2 Spacing 0.07
REM Total runtime: 10547.9 s
REM Overall efficiency: 77.5 %
REM
REM 4LiFeSO4F.cell (79c870615ff1d88195b1fe3fe805288c)
REM
REM compiler GCC version 4.9.2
REM options -cpp -iprefix /lustre/shared/ucl/apps/gcc/4.9.2/bin/../lib/gcc/x86_64-unknown-linux-gnu/4.9.2/ -mtune=corei7 -march=x86-64 -g -Og
REM COMMAND_LINE
REM seed 727879575 139848654 279539020 -1272682543 2061189018 -1384407103 -326713101 -1618646530 -657104267 1978503697 31317132 1801764823
REM
REM S 3|1.8|5|6|7|30:31:32(qc=5)
REM O 2|1.5|12|13|15|20:21(qc=5)
REM Li 1|1.3|8|9|10|10U:20(qc=5)
REM Fe 3|2.2|2.0|1.0|8|9|10|40:41:32(qc=5)
REM F 2|1.6|10|12|13|20:21(qc=5)
REM 
CELL 1.54180    6.09484    7.67542    9.86975   90.00000   90.00000   90.00000
LATT -1
SFAC Li O  F  S  Fe 
Li     1  0.2356160000000 -0.2619890000000  0.4263800000000 1.0  -0.03
Li     1 -0.2643840000000  0.2619890000000 -0.4263800000000 1.0  -0.03
Li     1  0.2356160000000 -0.2380110000000 -0.0736200000000 1.0  -0.03
Li     1 -0.2643840000000  0.2380110000000  0.0736200000000 1.0  -0.03
O      2  0.0160570000000 -0.1437170000000  0.3100550000000 1.0   0.06
O      2  0.1749570000000  0.0593240000000  0.1453020000000 1.0   0.04
O      2 -0.2295220000000  0.0193040000000  0.1622580000000 1.0   0.01
O      2  0.0034790000000 -0.2136130000000  0.0672290000000 1.0   0.05
O      2 -0.4839430000000  0.1437170000000 -0.3100550000000 1.0   0.06
O      2 -0.3250430000000 -0.0593240000000 -0.1453020000000 1.0   0.04
O      2 -0.7295220000000 -0.0193040000000 -0.1622580000000 1.0   0.01
O      2 -0.4965210000000  0.2136130000000 -0.0672290000000 1.0   0.05
O      2  0.0160570000000 -0.3562830000000 -0.1899450000000 1.0   0.06
O      2  0.1749570000000 -0.5593240000000 -0.3546980000000 1.0   0.04
O      2 -0.2295220000000 -0.5193040000000 -0.3377420000000 1.0   0.01
O      2  0.0034790000000 -0.2863870000000 -0.4327710000000 1.0   0.05
O      2 -0.4839430000000  0.3562830000000  0.1899450000000 1.0   0.06
O      2 -0.3250430000000  0.5593240000000  0.3546980000000 1.0   0.04
O      2 -0.7295220000000  0.5193040000000  0.3377420000000 1.0   0.01
O      2 -0.4965210000000  0.2863870000000  0.4327710000000 1.0   0.05
F      3 -0.0279050000000  0.3794610000000  0.0286190000000 1.0   0.11
F      3  0.4720950000000 -0.3794610000000 -0.0286190000000 1.0   0.11
F      3 -0.0279050000000  0.1205390000000  0.5286190000000 1.0   0.11
F      3  0.4720950000000 -0.1205390000000 -0.5286190000000 1.0   0.11
S      4 -0.0102220000000 -0.0634210000000  0.1690770000000 1.0   0.01
S      4 -0.5102220000000  0.0634210000000 -0.1690770000000 1.0   0.01
S      4 -0.0102220000000 -0.4365790000000 -0.3309230000000 1.0   0.01
S      4 -0.5102220000000  0.4365790000000  0.3309230000000 1.0   0.01
Fe     5 -0.2341580000000 -0.3166340000000 -0.0596160000000 1.0   3.75
Fe     5  0.2658420000000  0.3166340000000  0.0596160000000 1.0   3.75
Fe     5 -0.2341580000000 -0.1833660000000  0.4403840000000 1.0   3.75
Fe     5  0.2658420000000  0.1833660000000 -0.4403840000000 1.0   3.75
END
