TITL 4LiFeSO4F-200818-021507-9fb404 -0.0721 443.219954 -1.51304774E+004 -16.0001 16.2196 32 (P-1) n - 1
REM
REM Run started: Thu, 20 Aug 2020 13:26:47 +0100 in /lustre/scratch/uccabz1/launch_tmp/launcher_2020-08-19-13-54-37-030080
REM CASTEP 20.1 from code version af48c487+ pr-geom-scf-spinfix Tue Jun 2 15:39:59 2020 +0100
REM Functional Perdew Burke Ernzerhof Relativity Koelling-Harmon Dispersion off
REM Cut-off 340.0000 eV Grid scale 1.7500 Gmax 16.5316 1/A FBSC none
REM MP grid 4 3 2 Offset 0.000 0.000 0.000 No. kpts 12 Spacing 0.07
REM Total runtime: 163920 s
REM Overall efficiency: 65.5714 %
REM
REM
REM
REM compiler GCC version 4.9.2
REM options -cpp -iprefix /lustre/shared/ucl/apps/gcc/4.9.2/bin/../lib/gcc/x86_64-unknown-linux-gnu/4.9.2/ -mtune=corei7 -march=x86-64 -g -Og
REM COMMAND_LINE
REM seed -1254189788 -69704050 490672889 1139442281 1851647995 -285433408 -1174838380 244653974 818733900 -1223583790 684632700 770516085
REM
REM S 3|1.8|5|6|7|30:31:32(qc=5)
REM O 2|1.5|12|13|15|20:21(qc=5)
REM Li 1|1.3|8|9|10|10U:20(qc=5)
REM Fe 3|2.2|2.0|1.0|8|9|10|40:41:32(qc=5)
REM F 2|1.6|10|12|13|20:21(qc=5)
REM 
CELL 1.54180    4.94447    7.12796   15.19305   63.74858  106.58859   83.95176
LATT -1
SFAC Li O  F  S  Fe 
Li     1 -0.3513940000000  0.2753640000000  0.0484140000000 1.0   0.02
Li     1  0.3513940000000 -0.2753640000000 -0.0484140000000 1.0   0.02
Li     1  0.1644670000000 -0.2266760000000 -0.3044340000000 1.0   0.02
Li     1 -0.1644670000000  0.2266760000000  0.3044340000000 1.0   0.02
O      2 -0.0339820000000 -0.0205850000000  0.1146020000000 1.0  -0.04
O      2  0.2791930000000  0.1815440000000  0.0307060000000 1.0  -0.05
O      2  0.4216840000000 -0.2206290000000  0.1278480000000 1.0  -0.05
O      2  0.4380700000000 -0.0039910000000  0.2197710000000 1.0  -0.05
O      2  0.0339820000000  0.0205850000000 -0.1146020000000 1.0  -0.04
O      2 -0.2791930000000 -0.1815440000000 -0.0307060000000 1.0  -0.05
O      2 -0.4216840000000  0.2206290000000 -0.1278480000000 1.0  -0.05
O      2 -0.4380700000000  0.0039910000000 -0.2197710000000 1.0  -0.05
O      2  0.7163110000000 -0.2690970000000 -0.4740320000000 1.0  -0.08
O      2  0.4571630000000 -0.2512490000000 -0.3607000000000 1.0  -0.02
O      2  0.9623280000000 -0.4711530000000 -0.2855610000000 1.0  -0.07
O      2  0.5642100000000 -0.5865580000000 -0.3705510000000 1.0  -0.06
O      2 -0.7163110000000  0.2690970000000  0.4740320000000 1.0  -0.08
O      2 -0.4571630000000  0.2512490000000  0.3607000000000 1.0  -0.02
O      2 -0.9623280000000  0.4711530000000  0.2855610000000 1.0  -0.07
O      2 -0.5642100000000  0.5865580000000  0.3705510000000 1.0  -0.06
F      3  0.0336830000000  0.0671990000000 -0.3647290000000 1.0  -0.12
F      3 -0.0336830000000 -0.0671990000000  0.3647290000000 1.0  -0.12
F      3 -0.2947960000000  0.4366570000000  0.1119510000000 1.0  -0.05
F      3  0.2947960000000 -0.4366570000000 -0.1119510000000 1.0  -0.05
S      4  0.2791760000000 -0.0199290000000  0.1255900000000 1.0  -0.02
S      4 -0.2791760000000  0.0199290000000 -0.1255900000000 1.0  -0.02
S      4  0.6606890000000 -0.3923450000000 -0.3745690000000 1.0  -0.02
S      4 -0.6606890000000  0.3923450000000  0.3745690000000 1.0  -0.02
Fe     5 -0.3389120000000 -0.2032290000000  0.3810480000000 1.0  -3.69
Fe     5  0.3389120000000  0.2032290000000 -0.3810480000000 1.0  -3.69
Fe     5 -0.1582030000000 -0.3154460000000  0.1319600000000 1.0  -3.71
Fe     5  0.1582030000000  0.3154460000000 -0.1319600000000 1.0  -3.71
END
