TITL 4LiFeSO4F-200804-102701-19c392 -0.0235 556.953508 -1.51310097E+004 16.0000 16.1659 32 (Pca21) n - 1
REM
REM Run started: Tue, 04 Aug 2020 12:26:31 +0100 in /lustre/scratch/uccabz1/launch_tmp/launcher_2020-08-04-09-26-58-568752
REM CASTEP 20.1 from code version af48c487+ pr-geom-scf-spinfix Tue Jun 2 15:39:59 2020 +0100
REM Functional Perdew Burke Ernzerhof Relativity Koelling-Harmon Dispersion off
REM Cut-off 340.0000 eV Grid scale 1.7500 Gmax 16.5316 1/A FBSC none
REM MP grid 3 2 2 Offset 0.000 0.000 0.000 No. kpts 2 Spacing 0.07
REM Total runtime: 7328.9 s
REM Overall efficiency: 74.7273 %
REM
REM 4LiFeSO4F.cell (79c870615ff1d88195b1fe3fe805288c)
REM
REM compiler GCC version 4.9.2
REM options -cpp -iprefix /lustre/shared/ucl/apps/gcc/4.9.2/bin/../lib/gcc/x86_64-unknown-linux-gnu/4.9.2/ -mtune=corei7 -march=x86-64 -g -Og
REM COMMAND_LINE
REM seed 171945325 659663508 1291073628 298172542 -1585565170 -1628947034 891589181 -98092688 -371352535 -834407202 -896430130 -147360520
REM
REM S 3|1.8|5|6|7|30:31:32(qc=5)
REM O 2|1.5|12|13|15|20:21(qc=5)
REM Li 1|1.3|8|9|10|10U:20(qc=5)
REM Fe 3|2.2|2.0|1.0|8|9|10|40:41:32(qc=5)
REM F 2|1.6|10|12|13|20:21(qc=5)
REM 
CELL 1.54180    5.02656    8.78658   12.61037   90.00000   90.00000   90.00000
LATT -1
SFAC Li O  F  S  Fe 
Li     1  0.3088030000000 -0.2498010000000  0.3399070000000 1.0  -0.01
Li     1 -0.3088030000000  0.2498010000000 -0.1600930000000 1.0  -0.01
Li     1 -0.3088030000000  0.2501990000000  0.3399070000000 1.0  -0.01
Li     1  0.3088030000000 -0.2501990000000 -0.1600930000000 1.0  -0.01
O      2  0.1950640000000  0.1403260000000 -0.3871220000000 1.0   0.06
O      2  0.3374320000000  0.2121590000000 -0.2056920000000 1.0   0.01
O      2 -0.0815350000000  0.3106110000000 -0.2800720000000 1.0   0.06
O      2  0.3396220000000  0.4020700000000 -0.3524240000000 1.0   0.06
O      2 -0.1950640000000 -0.1403260000000  0.1128780000000 1.0   0.06
O      2 -0.3374320000000 -0.2121590000000  0.2943080000000 1.0   0.01
O      2  0.0815350000000 -0.3106110000000  0.2199280000000 1.0   0.06
O      2 -0.3396220000000 -0.4020700000000  0.1475760000000 1.0   0.06
O      2 -0.1950640000000 -0.3596740000000 -0.3871220000000 1.0   0.06
O      2 -0.3374320000000 -0.2878410000000 -0.2056920000000 1.0   0.01
O      2  0.0815350000000 -0.1893890000000 -0.2800720000000 1.0   0.06
O      2 -0.3396220000000 -0.0979300000000 -0.3524240000000 1.0   0.06
O      2  0.1950640000000  0.3596740000000  0.1128780000000 1.0   0.06
O      2  0.3374320000000  0.2878410000000  0.2943080000000 1.0   0.01
O      2 -0.0815350000000  0.1893890000000  0.2199280000000 1.0   0.06
O      2  0.3396220000000  0.0979300000000  0.1475760000000 1.0   0.06
F      3  0.2524760000000 -0.1890020000000  0.4710320000000 1.0   0.12
F      3 -0.2524760000000  0.1890020000000 -0.0289680000000 1.0   0.12
F      3 -0.2524760000000  0.3109980000000  0.4710320000000 1.0   0.12
F      3  0.2524760000000 -0.3109980000000 -0.0289680000000 1.0   0.12
S      4  0.2064400000000  0.2645970000000 -0.3044100000000 1.0   0.01
S      4 -0.2064400000000 -0.2645970000000  0.1955900000000 1.0   0.01
S      4 -0.2064400000000 -0.2354030000000 -0.3044100000000 1.0   0.01
S      4  0.2064400000000  0.2354030000000  0.1955900000000 1.0   0.01
Fe     5  0.2750040000000 -0.0751520000000 -0.4039280000000 1.0   3.69
Fe     5 -0.2750040000000  0.0751520000000  0.0960720000000 1.0   3.69
Fe     5 -0.2750040000000  0.4248480000000 -0.4039280000000 1.0   3.69
Fe     5  0.2750040000000 -0.4248480000000  0.0960720000000 1.0   3.69
END
