TITL 4LiFeSO4F-200818-034921-361a1f -0.1711 469.241344 -1.51303422E+004 16.0000 16.2558 32 (Cc) n - 1
REM
REM Run started: Wed, 19 Aug 2020 03:56:09 +0100 in /scratch/scratch/uccabz1/launch_tmp/launcher_2020-08-18-19-51-27-659349
REM CASTEP 19.11| from code version Version unavailable
REM Functional Perdew Burke Ernzerhof Relativity Koelling-Harmon Dispersion off
REM Cut-off 340.0000 eV Grid scale 1.7500 Gmax 16.5316 1/A FBSC none
REM MP grid 3 2 2 Offset 0.000 0.000 0.000 No. kpts 6 Spacing 0.07
REM Total runtime: 32451.4 s
REM Overall efficiency: 76.8333 %
REM
REM
REM
REM compiler GCC version 4.9.2
REM options -cpp -iprefix /scratch/UCL/applications/gcc/4.9.2/bin/../lib/gcc/x86_64-unknown-linux-gnu/4.9.2/ -mtune=corei7 -march=x86-64 -g -O2
REM COMMAND_LINE
REM seed 1830573513 -270103175 717380407 460185993 -1231483023 427439166 2089030589 -1111575612 2003496115 -645710211 -1403245477 343174506
REM
REM S 3|1.8|5|6|7|30:31:32(qc=5)
REM O 2|1.5|12|13|15|20:21(qc=5)
REM Li 1|1.3|8|9|10|10U:20(qc=5)
REM Fe 3|2.2|2.0|1.0|8|9|10|40:41:32(qc=5)
REM F 2|1.6|10|12|13|20:21(qc=5)
REM 
CELL 1.54180    5.29338    9.85266    9.39885   86.22412  106.35557   90.00000
LATT -1
SFAC Li O  F  S  Fe 
Li     1  0.2999190000000  0.4179280000000 -0.1678640000000 1.0  -0.02
Li     1 -0.4677830000000 -0.0820720000000 -0.1678640000000 1.0  -0.02
Li     1  0.2395890000000 -0.4332120000000  0.2541160000000 1.0  -0.03
Li     1  0.0145260000000  0.0667880000000  0.2541160000000 1.0  -0.03
O      2  0.3000250000000  0.0485250000000 -0.2921250000000 1.0   0.01
O      2  0.2527790000000  0.1747370000000 -0.5359160000000 1.0   0.05
O      2 -0.0755510000000  0.2048780000000 -0.3989250000000 1.0   0.06
O      2 -0.0445920000000 -0.0064080000000 -0.5219290000000 1.0   0.04
O      2  0.4078500000000 -0.4514750000000 -0.2921250000000 1.0   0.01
O      2  0.2113050000000 -0.3252630000000 -0.5359160000000 1.0   0.05
O      2  0.6766260000000 -0.2951220000000 -0.3989250000000 1.0   0.06
O      2  0.5226620000000 -0.5064080000000 -0.5219290000000 1.0   0.04
O      2  0.5436700000000  0.3110870000000  0.0037410000000 1.0   0.06
O      2  0.5979020000000  0.2790940000000  0.2719200000000 1.0   0.05
O      2  0.6456200000000  0.0837580000000  0.1317890000000 1.0   0.01
O      2  0.2037560000000  0.1900480000000  0.0930180000000 1.0   0.06
O      2 -0.5399290000000 -0.1889130000000  0.0037410000000 1.0   0.06
O      2 -0.3259820000000 -0.2209060000000  0.2719200000000 1.0   0.05
O      2 -0.5138300000000 -0.4162420000000  0.1317890000000 1.0   0.01
O      2 -0.1107380000000 -0.3099520000000  0.0930180000000 1.0   0.06
F      3 -0.0257430000000  0.4091680000000 -0.1491910000000 1.0   0.11
F      3 -0.1234480000000 -0.0908320000000 -0.1491910000000 1.0   0.11
F      3  0.1750020000000 -0.0839100000000  0.2318060000000 1.0   0.12
F      3  0.0568030000000  0.4160900000000  0.2318060000000 1.0   0.12
S      4  0.1118760000000  0.1038180000000 -0.4315980000000 1.0   0.02
S      4  0.4565270000000 -0.3961820000000 -0.4315980000000 1.0   0.02
S      4  0.4979190000000  0.2122820000000  0.1285520000000 1.0   0.01
S      4 -0.3693670000000 -0.2877180000000  0.1285520000000 1.0   0.01
Fe     5 -0.0928810000000 -0.2101190000000 -0.5162050000000 1.0   3.69
Fe     5 -0.4233250000000  0.2898810000000 -0.5162050000000 1.0   3.69
Fe     5 -0.0655210000000  0.3580630000000  0.0392730000000 1.0   3.77
Fe     5  0.1047940000000 -0.1419370000000  0.0392730000000 1.0   3.77
END
