TITL 4LiFeSO4F-200804-060312-910079 0.0290 598.608462 -1.51309106E+004 16.0000 16.3649 32 (C2/c) n - 1
REM
REM Run started: Tue, 04 Aug 2020 18:21:17 +0100 in /lustre/scratch/uccabz1/launch_tmp/launcher_2020-08-04-05-03-10-395106
REM CASTEP 20.1 from code version af48c487+ pr-geom-scf-spinfix Tue Jun 2 15:39:59 2020 +0100
REM Functional Perdew Burke Ernzerhof Relativity Koelling-Harmon Dispersion off
REM Cut-off 340.0000 eV Grid scale 1.7500 Gmax 16.5316 1/A FBSC none
REM MP grid 3 2 2 Offset 0.000 0.000 0.000 No. kpts 5 Spacing 0.07
REM Total runtime: 44548.4 s
REM Overall efficiency: 73.3846 %
REM
REM 4LiFeSO4F.cell (79c870615ff1d88195b1fe3fe805288c)
REM
REM compiler GCC version 4.9.2
REM options -cpp -iprefix /lustre/shared/ucl/apps/gcc/4.9.2/bin/../lib/gcc/x86_64-unknown-linux-gnu/4.9.2/ -mtune=corei7 -march=x86-64 -g -Og
REM COMMAND_LINE
REM seed -354435019 562766487 -581153949 1136335201 -1153480816 -1461667119 1269643491 -217348711 1947271436 -143214546 -1946581768 -1349914489
REM
REM S 3|1.8|5|6|7|30:31:32(qc=5)
REM O 2|1.5|12|13|15|20:21(qc=5)
REM Li 1|1.3|8|9|10|10U:20(qc=5)
REM Fe 3|2.2|2.0|1.0|8|9|10|40:41:32(qc=5)
REM F 2|1.6|10|12|13|20:21(qc=5)
REM 
CELL 1.54180    6.38514   12.27551   12.27551   40.88523  106.92672  106.92672
LATT -1
SFAC Li O  F  S  Fe 
Li     1  0.3253450000000 -0.3195980000000 -0.3185070000000 1.0  -0.02
Li     1  0.1746550000000  0.3185070000000  0.3195980000000 1.0  -0.02
Li     1 -0.3253450000000  0.3195980000000  0.3185070000000 1.0  -0.02
Li     1 -0.1746550000000 -0.3185070000000 -0.3195980000000 1.0  -0.02
O      2 -0.1267210000000 -0.0841790000000  0.3987120000000 1.0   0.07
O      2  0.1136200000000  0.1728250000000  0.2929740000000 1.0   0.01
O      2  0.0358190000000  0.1102130000000  0.1357620000000 1.0   0.08
O      2  0.2652310000000 -0.0665010000000  0.4080920000000 1.0   0.06
O      2  0.6267210000000 -0.3987120000000  0.0841790000000 1.0   0.07
O      2  0.3863800000000 -0.2929740000000 -0.1728250000000 1.0   0.01
O      2  0.4641810000000 -0.1357620000000 -0.1102130000000 1.0   0.08
O      2  0.2347690000000 -0.4080920000000  0.0665010000000 1.0   0.06
O      2  0.1267210000000  0.0841790000000 -0.3987120000000 1.0   0.07
O      2 -0.1136200000000 -0.1728250000000 -0.2929740000000 1.0   0.01
O      2 -0.0358190000000 -0.1102130000000 -0.1357620000000 1.0   0.08
O      2 -0.2652310000000  0.0665010000000 -0.4080920000000 1.0   0.06
O      2 -0.6267210000000  0.3987120000000 -0.0841790000000 1.0   0.07
O      2 -0.3863800000000  0.2929740000000  0.1728250000000 1.0   0.01
O      2 -0.4641810000000  0.1357620000000  0.1102130000000 1.0   0.08
O      2 -0.2347690000000  0.4080920000000 -0.0665010000000 1.0   0.06
F      3  0.5361480000000 -0.2891990000000 -0.4209480000000 1.0   0.09
F      3 -0.0361480000000  0.4209480000000  0.2891990000000 1.0   0.09
F      3 -0.5361480000000  0.2891990000000  0.4209480000000 1.0   0.09
F      3  0.0361480000000 -0.4209480000000 -0.2891990000000 1.0   0.09
S      4  0.0729970000000  0.0367050000000  0.3088760000000 1.0   0.02
S      4  0.4270030000000 -0.3088760000000 -0.0367050000000 1.0   0.02
S      4 -0.0729970000000 -0.0367050000000 -0.3088760000000 1.0   0.02
S      4 -0.4270030000000  0.3088760000000  0.0367050000000 1.0   0.02
Fe     5  0.4543250000000  0.0647010000000 -0.3542240000000 1.0   3.70
Fe     5  0.0456750000000  0.3542240000000 -0.0647010000000 1.0   3.70
Fe     5 -0.4543250000000 -0.0647010000000  0.3542240000000 1.0   3.70
Fe     5 -0.0456750000000 -0.3542240000000  0.0647010000000 1.0   3.70
END
