TITL 4LiFeSO4F-200804-061757-20c17c 0.0251 441.029212 -1.51308974E+004 16.0000 16.3104 32 (Pc) n - 1
REM
REM Run started: Tue, 04 Aug 2020 17:26:03 +0100 in /lustre/scratch/uccabz1/launch_tmp/launcher_2020-08-04-15-56-29-406001
REM CASTEP 20.1 from code version af48c487+ pr-geom-scf-spinfix Tue Jun 2 15:39:59 2020 +0100
REM Functional Perdew Burke Ernzerhof Relativity Koelling-Harmon Dispersion off
REM Cut-off 340.0000 eV Grid scale 1.7500 Gmax 16.5316 1/A FBSC none
REM MP grid 3 2 2 Offset 0.000 0.000 0.000 No. kpts 4 Spacing 0.07
REM Total runtime: 5567.34 s
REM Overall efficiency: 73.5 %
REM
REM
REM
REM compiler GCC version 4.9.2
REM options -cpp -iprefix /lustre/shared/ucl/apps/gcc/4.9.2/bin/../lib/gcc/x86_64-unknown-linux-gnu/4.9.2/ -mtune=corei7 -march=x86-64 -g -Og
REM COMMAND_LINE
REM seed -1721497208 597809669 -266345256 -1760738936 -958129923 -1321506954 1363085751 1416438191 -475187752 -1800462689 1918253652 -424266346
REM
REM S 3|1.8|5|6|7|30:31:32(qc=5)
REM O 2|1.5|12|13|15|20:21(qc=5)
REM Li 1|1.3|8|9|10|10U:20(qc=5)
REM Fe 3|2.2|2.0|1.0|8|9|10|40:41:32(qc=5)
REM F 2|1.6|10|12|13|20:21(qc=5)
REM 
CELL 1.54180    4.81472    7.64413   12.05993   83.52838   90.00000   90.00000
LATT -1
SFAC Li O  F  S  Fe 
Li     1  0.3342450000000  0.2179660000000 -0.2740540000000 1.0  -0.02
Li     1 -0.3342450000000  0.2179660000000  0.2259460000000 1.0  -0.02
Li     1 -0.4528320000000 -0.1896140000000 -0.1967690000000 1.0  -0.03
Li     1  0.4528320000000 -0.1896140000000  0.3032310000000 1.0  -0.03
O      2  0.1671410000000  0.7006970000000  0.1936350000000 1.0   0.06
O      2  0.4221870000000  0.4256670000000  0.1649540000000 1.0   0.01
O      2  0.0018090000000  0.5115220000000  0.0560430000000 1.0   0.05
O      2 -0.0321060000000  0.4091250000000  0.2575830000000 1.0   0.05
O      2 -0.1671410000000  0.7006970000000 -0.3063650000000 1.0   0.06
O      2 -0.4221870000000  0.4256670000000 -0.3350460000000 1.0   0.01
O      2 -0.0018090000000  0.5115220000000 -0.4439570000000 1.0   0.05
O      2  0.0321060000000  0.4091250000000 -0.2424170000000 1.0   0.05
O      2 -0.2944200000000 -0.0190490000000 -0.1168430000000 1.0   0.02
O      2 -0.5878030000000  0.2384690000000 -0.1057620000000 1.0   0.06
O      2 -0.2398070000000  0.1454160000000  0.0424580000000 1.0   0.06
O      2 -0.6667740000000 -0.0274120000000  0.0243940000000 1.0   0.07
O      2  0.2944200000000 -0.0190490000000  0.3831570000000 1.0   0.02
O      2  0.5878030000000  0.2384690000000  0.3942380000000 1.0   0.06
O      2  0.2398070000000  0.1454160000000  0.5424580000000 1.0   0.06
O      2  0.6667740000000 -0.0274120000000  0.5243940000000 1.0   0.07
F      3 -0.5282220000000 -0.3864480000000 -0.1081080000000 1.0   0.15
F      3  0.5282220000000 -0.3864480000000  0.3918920000000 1.0   0.15
F      3 -0.2584950000000 -0.0394260000000  0.2369200000000 1.0   0.09
F      3  0.2584950000000 -0.0394260000000 -0.2630800000000 1.0   0.09
S      4  0.1478070000000  0.5095380000000  0.1672830000000 1.0   0.02
S      4 -0.1478070000000  0.5095380000000 -0.3327170000000 1.0   0.02
S      4 -0.4470310000000  0.0832920000000 -0.0394920000000 1.0   0.01
S      4  0.4470310000000  0.0832920000000  0.4605080000000 1.0   0.01
Fe     5 -0.1745810000000 -0.5433450000000  0.4122680000000 1.0   3.75
Fe     5  0.1745810000000 -0.5433450000000 -0.0877320000000 1.0   3.75
Fe     5  0.0047570000000 -0.0658660000000  0.1192800000000 1.0   3.66
Fe     5 -0.0047570000000 -0.0658660000000 -0.3807200000000 1.0   3.66
END
