TITL 4LiFeSO4F-200818-164745-196a5c 0.0090 423.195775 -1.51228074E+004 13.9927 14.7770 32 (P-1) n - 1
REM
REM Run started: Wed, 19 Aug 2020 00:49:11 +0100 in /lustre/scratch/uccabz1/launch_tmp/launcher_2020-08-18-15-47-32-884026
REM CASTEP 20.1 from code version af48c487+ pr-geom-scf-spinfix Tue Jun 2 15:39:59 2020 +0100
REM Functional Perdew Burke Ernzerhof Relativity Koelling-Harmon Dispersion off
REM Cut-off 340.0000 eV Grid scale 1.7500 Gmax 16.5316 1/A FBSC none
REM MP grid 3 2 2 Offset 0.000 0.000 0.000 No. kpts 6 Spacing 0.07
REM Total runtime: 30159.8 s
REM Overall efficiency: 73.2727 %
REM
REM 4LiFeSO4F.cell (79c870615ff1d88195b1fe3fe805288c)
REM
REM compiler GCC version 4.9.2
REM options -cpp -iprefix /lustre/shared/ucl/apps/gcc/4.9.2/bin/../lib/gcc/x86_64-unknown-linux-gnu/4.9.2/ -mtune=corei7 -march=x86-64 -g -Og
REM COMMAND_LINE
REM seed 2113907375 1023133113 566404306 958627844 -1383038796 -469459314 889483253 -442796548 -1750482700 167941337 -928279572 -1201750999
REM
REM S 3|1.8|5|6|7|30:31:32(qc=5)
REM O 2|1.5|12|13|15|20:21(qc=5)
REM Li 1|1.3|8|9|10|10U:20(qc=5)
REM Fe 3|2.2|2.0|1.0|8|9|10|40:41:32(qc=5)
REM F 2|1.6|10|12|13|20:21(qc=5)
REM 
CELL 1.54180    5.50768   10.18540   10.55339  130.42393  108.90465   72.66821
LATT -1
SFAC Li O  F  S  Fe 
Li     1  0.6412850000000 -0.0920180000000  0.1161580000000 1.0  -0.01
Li     1 -0.6412850000000  0.0920180000000 -0.1161580000000 1.0  -0.01
Li     1  0.0000000000000 -0.5000000000000 -0.5000000000000 1.0  -0.00
Li     1  0.0000000000000  0.0000000000000  0.5000000000000 1.0  -0.02
O      2  0.1234590000000 -0.1761320000000  0.0421070000000 1.0   0.02
O      2 -0.0530600000000  0.0146760000000  0.2988110000000 1.0   0.00
O      2  0.0869570000000  0.1443100000000  0.2039340000000 1.0   0.03
O      2  0.4167190000000  0.0011480000000  0.3075120000000 1.0   0.07
O      2 -0.1234590000000  0.1761320000000 -0.0421070000000 1.0   0.02
O      2  0.0530600000000 -0.0146760000000 -0.2988110000000 1.0   0.00
O      2 -0.0869570000000 -0.1443100000000 -0.2039340000000 1.0   0.03
O      2 -0.4167190000000 -0.0011480000000 -0.3075120000000 1.0   0.07
O      2 -0.4371880000000 -0.3430490000000 -0.0991060000000 1.0   0.32
O      2  0.0512240000000 -0.4522440000000 -0.2673950000000 1.0   0.32
O      2 -0.7087810000000 -0.3513930000000 -0.3637030000000 1.0   0.07
O      2 -0.4098740000000 -0.5977590000000 -0.4176450000000 1.0  -0.01
O      2  0.4371880000000  0.3430490000000  0.0991060000000 1.0   0.32
O      2 -0.0512240000000  0.4522440000000  0.2673950000000 1.0   0.32
O      2  0.7087810000000  0.3513930000000  0.3637030000000 1.0   0.07
O      2  0.4098740000000  0.5977590000000  0.4176450000000 1.0  -0.01
F      3  0.0127290000000  0.7564050000000  0.3249630000000 1.0   0.18
F      3 -0.0127290000000 -0.7564050000000 -0.3249630000000 1.0   0.18
F      3 -0.5000000000000  0.0000000000000  0.0000000000000 1.0   0.02
F      3  0.0000000000000  0.5000000000000  0.0000000000000 1.0   0.17
S      4  0.1315860000000 -0.0006610000000  0.2141520000000 1.0  -0.00
S      4 -0.1315860000000  0.0006610000000 -0.2141520000000 1.0  -0.00
S      4  0.5000000000000  1.0000000000000  0.5000000000000 1.0   0.84
S      4 -0.5000000000000 -0.5000000000000 -0.5000000000000 1.0  -0.14
Fe     5 -0.2487730000000  0.2866860000000  0.1666100000000 1.0   1.83
Fe     5  0.2487730000000 -0.2866860000000 -0.1666100000000 1.0   1.83
Fe     5 -0.1488130000000 -0.5235280000000 -0.2117860000000 1.0   3.75
Fe     5  0.1488130000000  0.5235280000000  0.2117860000000 1.0   3.75
END
