TITL 4LiFeSO4F-200804-062513-978146 0.0473 433.653938 -1.51308229E+004 16.0001 16.2708 32 (P21) n - 1
REM
REM Run started: Tue, 04 Aug 2020 12:17:21 +0100 in /lustre/scratch/uccabz1/launch_tmp/launcher_2020-08-04-05-25-09-299326
REM CASTEP 20.1 from code version af48c487+ pr-geom-scf-spinfix Tue Jun 2 15:39:59 2020 +0100
REM Functional Perdew Burke Ernzerhof Relativity Koelling-Harmon Dispersion off
REM Cut-off 340.0000 eV Grid scale 1.7500 Gmax 16.5316 1/A FBSC none
REM MP grid 3 2 2 Offset 0.000 0.000 0.000 No. kpts 3 Spacing 0.07
REM Total runtime: 21211.7 s
REM Overall efficiency: 76.3333 %
REM
REM 4LiFeSO4F.cell (79c870615ff1d88195b1fe3fe805288c)
REM
REM compiler GCC version 4.9.2
REM options -cpp -iprefix /lustre/shared/ucl/apps/gcc/4.9.2/bin/../lib/gcc/x86_64-unknown-linux-gnu/4.9.2/ -mtune=corei7 -march=x86-64 -g -Og
REM COMMAND_LINE
REM seed 147389632 397399115 246941617 1026732233 -1301256855 -1478250333 1252015945 762088369 -1595975684 -1732833495 -2026027750 1321888650
REM
REM S 3|1.8|5|6|7|30:31:32(qc=5)
REM O 2|1.5|12|13|15|20:21(qc=5)
REM Li 1|1.3|8|9|10|10U:20(qc=5)
REM Fe 3|2.2|2.0|1.0|8|9|10|40:41:32(qc=5)
REM F 2|1.6|10|12|13|20:21(qc=5)
REM 
CELL 1.54180    5.26064    8.54030   10.29536   90.00000   90.00000  110.35760
LATT -1
SFAC Li O  F  S  Fe 
Li     1  0.3607430000000  0.2819180000000 -0.5092630000000 1.0  -0.01
Li     1 -0.3607430000000 -0.2819180000000 -0.0092630000000 1.0  -0.01
Li     1  0.3022250000000  0.0312890000000  0.1805750000000 1.0  -0.00
Li     1 -0.3022250000000 -0.0312890000000 -0.3194250000000 1.0  -0.00
O      2  0.3212510000000 -0.1195870000000 -0.2516070000000 1.0   0.07
O      2  0.4138520000000  0.0462260000000 -0.0489870000000 1.0   0.05
O      2  0.3048330000000 -0.2544860000000 -0.0391830000000 1.0   0.01
O      2 -0.0518960000000 -0.1407610000000 -0.0996460000000 1.0   0.00
O      2 -0.3212510000000  0.1195870000000  0.2483930000000 1.0   0.07
O      2 -0.4138520000000 -0.0462260000000  0.4510130000000 1.0   0.05
O      2 -0.3048330000000  0.2544860000000  0.4608170000000 1.0   0.01
O      2  0.0518960000000  0.1407610000000  0.4003540000000 1.0   0.00
O      2 -0.3321780000000 -0.3689950000000  0.3238280000000 1.0   0.05
O      2  0.1004910000000 -0.3278290000000  0.4346450000000 1.0   0.12
O      2  0.0943260000000 -0.1875520000000  0.2254150000000 1.0   0.02
O      2  0.0004020000000 -0.4889070000000  0.2367760000000 1.0   0.08
O      2  0.3321780000000  0.3689950000000 -0.1761720000000 1.0   0.05
O      2 -0.1004910000000  0.3278290000000 -0.0653550000000 1.0   0.12
O      2 -0.0943260000000  0.1875520000000 -0.2745850000000 1.0   0.02
O      2 -0.0004020000000  0.4889070000000 -0.2632240000000 1.0   0.08
F      3 -0.4168730000000 -0.4839910000000  0.0533330000000 1.0   0.13
F      3  0.4168730000000  0.4839910000000  0.5533330000000 1.0   0.13
F      3 -0.2067280000000 -0.2111420000000 -0.3811950000000 1.0   0.11
F      3  0.2067280000000  0.2111420000000  0.1188050000000 1.0   0.11
S      4  0.2401690000000 -0.1197790000000 -0.1059810000000 1.0   0.00
S      4 -0.2401690000000  0.1197790000000  0.3940190000000 1.0   0.00
S      4 -0.0405590000000 -0.3410050000000  0.2998390000000 1.0   0.02
S      4  0.0405590000000  0.3410050000000 -0.2001610000000 1.0   0.02
Fe     5 -0.5123990000000 -0.2982000000000  0.4862240000000 1.0   3.71
Fe     5  0.5123990000000  0.2982000000000 -0.0137760000000 1.0   3.71
Fe     5 -0.0957680000000  0.3095990000000  0.1317430000000 1.0   3.63
Fe     5  0.0957680000000 -0.3095990000000 -0.3682570000000 1.0   3.63
END
