TITL 4LiFeSO4F-200818-154149-a5e5ad -0.0623 552.718534 -1.51305212E+004 16.0000 16.3497 32 (P2) n - 1
REM
REM Run started: Wed, 19 Aug 2020 07:41:15 +0100 in /lustre/scratch/uccabz1/launch_tmp/launcher_2020-08-18-14-41-28-515665
REM CASTEP 20.1 from code version af48c487+ pr-geom-scf-spinfix Tue Jun 2 15:39:59 2020 +0100
REM Functional Perdew Burke Ernzerhof Relativity Koelling-Harmon Dispersion off
REM Cut-off 340.0000 eV Grid scale 1.7500 Gmax 16.5316 1/A FBSC none
REM MP grid 3 2 2 Offset 0.000 0.000 0.000 No. kpts 4 Spacing 0.07
REM Total runtime: 63048.6 s
REM Overall efficiency: 69.5 %
REM
REM 4LiFeSO4F.cell (79c870615ff1d88195b1fe3fe805288c)
REM
REM compiler GCC version 4.9.2
REM options -cpp -iprefix /lustre/shared/ucl/apps/gcc/4.9.2/bin/../lib/gcc/x86_64-unknown-linux-gnu/4.9.2/ -mtune=corei7 -march=x86-64 -g -Og
REM COMMAND_LINE
REM seed 1076203355 747268490 147173510 -2015670191 1011559659 -1671338113 -1434325519 1293261300 -741149340 537771112 -1711357286 -1549932921
REM
REM S 3|1.8|5|6|7|30:31:32(qc=5)
REM O 2|1.5|12|13|15|20:21(qc=5)
REM Li 1|1.3|8|9|10|10U:20(qc=5)
REM Fe 3|2.2|2.0|1.0|8|9|10|40:41:32(qc=5)
REM F 2|1.6|10|12|13|20:21(qc=5)
REM 
CELL 1.54180    5.20136   11.70108   12.25211  132.16408   90.00000   90.00000
LATT -1
SFAC Li O  F  S  Fe 
Li     1 -0.1466490000000  0.3506010000000  0.2943720000000 1.0  -0.02
Li     1 -0.1466490000000 -0.3506010000000 -0.2943720000000 1.0  -0.02
Li     1  0.0986410000000 -0.2786030000000  0.0934820000000 1.0  -0.01
Li     1  0.0986410000000  0.2786030000000 -0.0934820000000 1.0  -0.01
O      2  0.6074460000000 -0.2604330000000 -0.1508500000000 1.0   0.01
O      2  0.1629690000000 -0.2213840000000 -0.1899960000000 1.0   0.04
O      2  0.3358200000000 -0.0749030000000  0.0622650000000 1.0   0.07
O      2  0.2434100000000 -0.3504520000000 -0.0973870000000 1.0   0.05
O      2  0.6074460000000  0.2604330000000  0.1508500000000 1.0   0.01
O      2  0.1629690000000  0.2213840000000  0.1899960000000 1.0   0.04
O      2  0.3358200000000  0.0749030000000 -0.0622650000000 1.0   0.07
O      2  0.2434100000000  0.3504520000000  0.0973870000000 1.0   0.05
O      2 -0.1300910000000 -0.1817920000000  0.4711390000000 1.0   0.01
O      2 -0.5000270000000 -0.3383090000000  0.4413340000000 1.0   0.06
O      2 -0.1801910000000 -0.2395550000000  0.6319830000000 1.0   0.06
O      2 -0.0586320000000 -0.4438220000000  0.3727200000000 1.0   0.07
O      2 -0.1300910000000  0.1817920000000 -0.4711390000000 1.0   0.01
O      2 -0.5000270000000  0.3383090000000 -0.4413340000000 1.0   0.06
O      2 -0.1801910000000  0.2395550000000 -0.6319830000000 1.0   0.06
O      2 -0.0586320000000  0.4438220000000 -0.3727200000000 1.0   0.07
F      3 -0.0838080000000 -0.1065730000000  0.1782860000000 1.0   0.13
F      3 -0.0838080000000  0.1065730000000 -0.1782860000000 1.0   0.13
F      3  0.1901810000000  0.3648250000000 -0.1669560000000 1.0   0.12
F      3  0.1901810000000 -0.3648250000000  0.1669560000000 1.0   0.12
S      4  0.3434540000000 -0.2258700000000 -0.0943290000000 1.0   0.02
S      4  0.3434540000000  0.2258700000000  0.0943290000000 1.0   0.02
S      4 -0.2193950000000 -0.2944040000000  0.4791210000000 1.0   0.01
S      4 -0.2193950000000  0.2944040000000 -0.4791210000000 1.0   0.01
Fe     5  0.2393350000000 -0.4084730000000  0.2871660000000 1.0   3.72
Fe     5  0.2393350000000  0.4084730000000 -0.2871660000000 1.0   3.72
Fe     5  0.0511650000000 -0.0597900000000 -0.2052470000000 1.0   3.65
Fe     5  0.0511650000000  0.0597900000000  0.2052470000000 1.0   3.65
END
