TITL 4LiFeSO4F-200804-072337-579664 -0.0704 401.612562 -1.51306955E+004 16.0000 16.2972 32 (C2) n - 1
REM
REM Run started: Wed, 05 Aug 2020 07:28:55 +0100 in /lustre/scratch/uccabz1/launch_tmp/launcher_2020-08-04-16-15-42-632109
REM CASTEP 20.1 from code version af48c487+ pr-geom-scf-spinfix Tue Jun 2 15:39:59 2020 +0100
REM Functional Perdew Burke Ernzerhof Relativity Koelling-Harmon Dispersion off
REM Cut-off 340.0000 eV Grid scale 1.7500 Gmax 16.5316 1/A FBSC none
REM MP grid 3 3 2 Offset 0.000 0.000 0.000 No. kpts 9 Spacing 0.07
REM Total runtime: 58361.4 s
REM Overall efficiency: 98 %
REM
REM
REM
REM compiler GCC version 4.9.2
REM options -cpp -iprefix /lustre/shared/ucl/apps/gcc/4.9.2/bin/../lib/gcc/x86_64-unknown-linux-gnu/4.9.2/ -mtune=corei7 -march=x86-64 -g -Og
REM COMMAND_LINE
REM seed -503019873 1682242771 -394275672 1550028148 -1654718943 -1881414278 1266198037 -1707561930 1322407185 1493831863 513032274 1444887847
REM
REM S 3|1.8|5|6|7|30:31:32(qc=5)
REM O 2|1.5|12|13|15|20:21(qc=5)
REM Li 1|1.3|8|9|10|10U:20(qc=5)
REM Fe 3|2.2|2.0|1.0|8|9|10|40:41:32(qc=5)
REM F 2|1.6|10|12|13|20:21(qc=5)
REM 
CELL 1.54180    6.00931    6.00931   13.02929   95.88350   97.95399  118.53659
LATT -1
SFAC Li O  F  S  Fe 
Li     1 -0.1460010000000  0.1228800000000  0.1154320000000 1.0  -0.00
Li     1  0.0074470000000 -0.2614320000000 -0.1154320000000 1.0  -0.00
Li     1  0.3815010000000  0.1391920000000  0.1163030000000 1.0  -0.02
Li     1  0.0228880000000  0.2651990000000 -0.1163030000000 1.0  -0.02
O      2  0.4409320000000 -0.1477000000000 -0.2198780000000 1.0   0.07
O      2  0.7482220000000  0.0004320000000 -0.0501770000000 1.0   0.01
O      2  0.6110840000000 -0.4196620000000 -0.1581660000000 1.0   0.05
O      2  0.3025910000000 -0.3593490000000 -0.0695030000000 1.0   0.01
O      2  0.0721770000000 -0.3391890000000  0.2198780000000 1.0   0.07
O      2  0.0506080000000 -0.2015990000000  0.0501770000000 1.0   0.01
O      2 -0.2614980000000 -0.2307500000000  0.1581660000000 1.0   0.05
O      2 -0.2898480000000 -0.6279050000000  0.0695030000000 1.0   0.01
O      2 -0.0933210000000  0.1766010000000 -0.4053430000000 1.0   0.04
O      2 -0.0776610000000  0.6002810000000 -0.3839620000000 1.0   0.04
O      2 -0.1241370000000  0.3694890000000 -0.2344850000000 1.0   0.05
O      2 -0.4878500000000  0.2056070000000 -0.3787440000000 1.0   0.09
O      2 -0.4180570000000  0.3120230000000  0.4053430000000 1.0   0.04
O      2 -0.0157580000000  0.3063020000000  0.3839620000000 1.0   0.04
O      2 -0.3960270000000  0.1103490000000  0.2344850000000 1.0   0.05
O      2 -0.4156500000000 -0.1091050000000  0.3787440000000 1.0   0.09
F      3  0.2185000000000  0.3151090000000  0.1489870000000 1.0   0.07
F      3  0.1661210000000  0.0695140000000 -0.1489870000000 1.0   0.07
F      3  0.4375280000000 -0.3846780000000 -0.4450860000000 1.0   0.15
F      3  0.0604070000000 -0.1173860000000  0.4450860000000 1.0   0.15
S      4  0.5231930000000 -0.2306750000000 -0.1229540000000 1.0   0.01
S      4 -0.1077220000000 -0.3538520000000  0.1229540000000 1.0   0.01
S      4 -0.1868180000000  0.3425750000000 -0.3538880000000 1.0   0.01
S      4 -0.3035370000000  0.1670710000000  0.3538880000000 1.0   0.01
Fe     5  0.2533390000000  0.2512470000000  0.4938500000000 1.0   3.71
Fe     5 -0.2426040000000 -0.2405090000000 -0.4938500000000 1.0   3.71
Fe     5  0.4158840000000 -0.3259900000000  0.2249320000000 1.0   3.70
Fe     5  0.4490770000000  0.1909530000000 -0.2249320000000 1.0   3.70
END
