TITL 4LiFeSO4F-200818-010649-d5608d -0.0184 415.512780 -1.51319085E+004 16.0000 16.3119 32 (P212121) n - 1
REM
REM Run started: Tue, 18 Aug 2020 02:54:03 +0100 in /scratch/scratch/uccabz1/launch_tmp/launcher_2020-08-18-00-06-47-378199
REM CASTEP 19.11| from code version Version unavailable
REM Functional Perdew Burke Ernzerhof Relativity Koelling-Harmon Dispersion off
REM Cut-off 340.0000 eV Grid scale 1.7500 Gmax 16.5316 1/A FBSC none
REM MP grid 3 3 2 Offset 0.000 0.000 0.000 No. kpts 4 Spacing 0.07
REM Total runtime: 7085.48 s
REM Overall efficiency: 75.125 %
REM
REM 4LiFeSO4F.cell (79c870615ff1d88195b1fe3fe805288c)
REM
REM compiler GCC version 4.9.2
REM options -cpp -iprefix /scratch/UCL/applications/gcc/4.9.2/bin/../lib/gcc/x86_64-unknown-linux-gnu/4.9.2/ -mtune=corei7 -march=x86-64 -g -O2
REM COMMAND_LINE
REM seed 760756866 -874629871 1924278535 983667180 -887327366 1730779228 236597462 575475815 -509485512 267146236 40375367 -101153279
REM
REM S 3|1.8|5|6|7|30:31:32(qc=5)
REM O 2|1.5|12|13|15|20:21(qc=5)
REM Li 1|1.3|8|9|10|10U:20(qc=5)
REM Fe 3|2.2|2.0|1.0|8|9|10|40:41:32(qc=5)
REM F 2|1.6|10|12|13|20:21(qc=5)
REM 
CELL 1.54180    4.79566    6.04659   14.32933   90.00000   90.00000   90.00000
LATT -1
SFAC Li O  F  S  Fe 
Li     1  0.0865090000000 -0.1419650000000 -0.2629910000000 1.0  -0.01
Li     1  0.4134910000000  0.1419650000000  0.2370090000000 1.0  -0.01
Li     1 -0.0865090000000  0.3580350000000 -0.2370090000000 1.0  -0.01
Li     1 -0.4134910000000 -0.3580350000000  0.2629910000000 1.0  -0.01
O      2 -0.2534970000000 -0.0978630000000 -0.4714720000000 1.0   0.08
O      2 -0.5182660000000  0.2426650000000 -0.4271170000000 1.0   0.05
O      2 -0.1837870000000  0.0799060000000 -0.3162460000000 1.0   0.01
O      2 -0.6131860000000 -0.1253260000000 -0.3593740000000 1.0   0.06
O      2 -0.2465030000000  0.0978630000000  0.0285280000000 1.0   0.08
O      2  0.0182660000000 -0.2426650000000  0.0728830000000 1.0   0.05
O      2 -0.3162130000000 -0.0799060000000  0.1837540000000 1.0   0.01
O      2  0.1131860000000  0.1253260000000  0.1406260000000 1.0   0.06
O      2  0.2534970000000 -0.5978630000000 -0.0285280000000 1.0   0.08
O      2  0.5182660000000 -0.2573350000000 -0.0728830000000 1.0   0.05
O      2  0.1837870000000 -0.4200940000000 -0.1837540000000 1.0   0.01
O      2  0.6131860000000 -0.6253260000000 -0.1406260000000 1.0   0.06
O      2  0.2465030000000  0.5978630000000  0.4714720000000 1.0   0.08
O      2 -0.0182660000000  0.2573350000000  0.4271170000000 1.0   0.05
O      2  0.3162130000000  0.4200940000000  0.3162460000000 1.0   0.01
O      2 -0.1131860000000  0.6253260000000  0.3593740000000 1.0   0.06
F      3  0.1621240000000  0.0652040000000 -0.1661910000000 1.0   0.10
F      3  0.3378760000000 -0.0652040000000  0.3338090000000 1.0   0.10
F      3 -0.1621240000000 -0.4347960000000 -0.3338090000000 1.0   0.10
F      3 -0.3378760000000  0.4347960000000  0.1661910000000 1.0   0.10
S      4 -0.3887970000000  0.0346600000000 -0.3913390000000 1.0   0.01
S      4 -0.1112030000000 -0.0346600000000  0.1086610000000 1.0   0.01
S      4  0.3887970000000 -0.4653400000000 -0.1086610000000 1.0   0.01
S      4  0.1112030000000  0.4653400000000  0.3913390000000 1.0   0.01
Fe     5 -0.5448330000000  0.0792600000000 -0.0740730000000 1.0   3.70
Fe     5  0.0448330000000 -0.0792600000000  0.4259270000000 1.0   3.70
Fe     5  0.5448330000000 -0.4207400000000 -0.4259270000000 1.0   3.70
Fe     5 -0.0448330000000  0.4207400000000  0.0740730000000 1.0   3.70
END
