TITL 4LiFeSO4F-200804-072907-57b817 -0.0048 463.934067 -1.51310108E+004 16.0000 16.2906 32 (Pcc2) n - 1
REM
REM Run started: Tue, 04 Aug 2020 10:56:12 +0100 in /lustre/scratch/uccabz1/launch_tmp/launcher_2020-08-04-06-28-36-151897
REM CASTEP 20.1 from code version af48c487+ pr-geom-scf-spinfix Tue Jun 2 15:39:59 2020 +0100
REM Functional Perdew Burke Ernzerhof Relativity Koelling-Harmon Dispersion off
REM Cut-off 340.0000 eV Grid scale 1.7500 Gmax 16.5316 1/A FBSC none
REM MP grid 2 2 2 Offset 0.000 0.000 0.000 No. kpts 1 Spacing 0.07
REM Total runtime: 12471.2 s
REM Overall efficiency: 72.2308 %
REM
REM 4LiFeSO4F.cell (79c870615ff1d88195b1fe3fe805288c)
REM
REM compiler GCC version 4.9.2
REM options -cpp -iprefix /lustre/shared/ucl/apps/gcc/4.9.2/bin/../lib/gcc/x86_64-unknown-linux-gnu/4.9.2/ -mtune=corei7 -march=x86-64 -g -Og
REM COMMAND_LINE
REM seed -1604326955 -818485439 -2092783561 -741813482 529881161 782451586 -1521711509 -1257877203 2061360398 927018946 1290354765 1121349423
REM
REM S 3|1.8|5|6|7|30:31:32(qc=5)
REM O 2|1.5|12|13|15|20:21(qc=5)
REM Li 1|1.3|8|9|10|10U:20(qc=5)
REM Fe 3|2.2|2.0|1.0|8|9|10|40:41:32(qc=5)
REM F 2|1.6|10|12|13|20:21(qc=5)
REM 
CELL 1.54180    7.96449    7.53419    7.73147   90.00000   90.00000   90.00000
LATT -1
SFAC Li O  F  S  Fe 
Li     1 -0.3408590000000  0.2638400000000 -0.3123560000000 1.0  -0.01
Li     1  0.3408590000000  0.2638400000000  0.3123560000000 1.0  -0.01
Li     1  0.3408590000000 -0.2361600000000 -0.3123560000000 1.0  -0.01
Li     1 -0.3408590000000 -0.2361600000000  0.3123560000000 1.0  -0.01
O      2 -0.2675490000000  0.0402310000000 -0.2150680000000 1.0   0.05
O      2 -0.4152520000000 -0.2499950000000 -0.2371720000000 1.0   0.06
O      2 -0.1160360000000 -0.2463230000000 -0.2224620000000 1.0   0.07
O      2 -0.2595350000000 -0.1210140000000 -0.4869780000000 1.0   0.01
O      2  0.2675490000000  0.0402310000000  0.2150680000000 1.0   0.05
O      2  0.4152520000000 -0.2499950000000  0.2371720000000 1.0   0.06
O      2  0.1160360000000 -0.2463230000000  0.2224620000000 1.0   0.07
O      2  0.2595350000000 -0.1210140000000  0.4869780000000 1.0   0.01
O      2  0.2675490000000  0.5402310000000 -0.2150680000000 1.0   0.05
O      2  0.4152520000000  0.2500050000000 -0.2371720000000 1.0   0.06
O      2  0.1160360000000  0.2536770000000 -0.2224620000000 1.0   0.07
O      2  0.2595350000000  0.3789860000000 -0.4869780000000 1.0   0.01
O      2 -0.2675490000000  0.5402310000000  0.2150680000000 1.0   0.05
O      2 -0.4152520000000  0.2500050000000  0.2371720000000 1.0   0.06
O      2 -0.1160360000000  0.2536770000000  0.2224620000000 1.0   0.07
O      2 -0.2595350000000  0.3789860000000  0.4869780000000 1.0   0.01
F      3 -0.2689250000000 -0.1335200000000  0.1043030000000 1.0   0.11
F      3  0.2689250000000 -0.1335200000000 -0.1043030000000 1.0   0.11
F      3  0.2689250000000  0.3664800000000  0.1043030000000 1.0   0.11
F      3 -0.2689250000000  0.3664800000000 -0.1043030000000 1.0   0.11
S      4 -0.2614940000000 -0.1439620000000 -0.2978310000000 1.0   0.00
S      4  0.2614940000000 -0.1439620000000  0.2978310000000 1.0   0.00
S      4  0.2614940000000  0.3560380000000 -0.2978310000000 1.0   0.00
S      4 -0.2614940000000  0.3560380000000  0.2978310000000 1.0   0.00
Fe     5 -0.2653040000000  0.1179610000000  0.0409030000000 1.0   3.71
Fe     5  0.2653040000000  0.1179610000000 -0.0409030000000 1.0   3.71
Fe     5  0.2653040000000 -0.3820390000000  0.0409030000000 1.0   3.71
Fe     5 -0.2653040000000 -0.3820390000000 -0.0409030000000 1.0   3.71
END
