TITL 4LiFeSO4F-200804-102515-fb88a8 0.0329 473.059680 -1.51314072E+004 16.0000 16.2549 32 (P-1) n - 1
REM
REM Run started: Wed, 05 Aug 2020 01:17:19 +0100 in /lustre/scratch/uccabz1/launch_tmp/launcher_2020-08-04-17-29-25-586538
REM CASTEP 20.1 from code version af48c487+ pr-geom-scf-spinfix Tue Jun 2 15:39:59 2020 +0100
REM Functional Perdew Burke Ernzerhof Relativity Koelling-Harmon Dispersion off
REM Cut-off 340.0000 eV Grid scale 1.7500 Gmax 16.5316 1/A FBSC none
REM MP grid 3 2 2 Offset 0.000 0.000 0.000 No. kpts 6 Spacing 0.07
REM Total runtime: 25095.8 s
REM Overall efficiency: 75.4 %
REM
REM
REM
REM compiler GCC version 4.9.2
REM options -cpp -iprefix /lustre/shared/ucl/apps/gcc/4.9.2/bin/../lib/gcc/x86_64-unknown-linux-gnu/4.9.2/ -mtune=corei7 -march=x86-64 -g -Og
REM COMMAND_LINE
REM seed -199206523 -797874169 -1413394353 264145399 -2001630407 -1502841688 453568285 1601262428 -741774741 -1195076175 1620201153 -2008658225
REM
REM S 3|1.8|5|6|7|30:31:32(qc=5)
REM O 2|1.5|12|13|15|20:21(qc=5)
REM Li 1|1.3|8|9|10|10U:20(qc=5)
REM Fe 3|2.2|2.0|1.0|8|9|10|40:41:32(qc=5)
REM F 2|1.6|10|12|13|20:21(qc=5)
REM 
CELL 1.54180    5.31326    9.03160   10.38947  104.52412  101.00353   84.29628
LATT -1
SFAC Li O  F  S  Fe 
Li     1  0.1844570000000 -0.2234720000000  0.4136670000000 1.0  -0.01
Li     1 -0.1844570000000  0.2234720000000 -0.4136670000000 1.0  -0.01
Li     1 -0.1854820000000 -0.0545550000000  0.0490910000000 1.0  -0.01
Li     1  0.1854820000000  0.0545550000000 -0.0490910000000 1.0  -0.01
O      2 -0.2786970000000  0.1465400000000 -0.2806900000000 1.0   0.01
O      2 -0.1771880000000  0.0967460000000 -0.0548430000000 1.0   0.01
O      2 -0.6140480000000  0.0659350000000 -0.1820530000000 1.0   0.01
O      2 -0.4476740000000  0.3252540000000 -0.0927780000000 1.0   0.12
O      2  0.2786970000000 -0.1465400000000  0.2806900000000 1.0   0.01
O      2  0.1771880000000 -0.0967460000000  0.0548430000000 1.0   0.01
O      2  0.6140480000000 -0.0659350000000  0.1820530000000 1.0   0.01
O      2  0.4476740000000 -0.3252540000000  0.0927780000000 1.0   0.12
O      2 -0.0788230000000  0.6343100000000  0.3588120000000 1.0   0.02
O      2 -0.0420540000000  0.5066470000000  0.1228640000000 1.0   0.08
O      2 -0.3827960000000  0.4400180000000  0.2268770000000 1.0   0.08
O      2  0.0628810000000  0.3602880000000  0.3010880000000 1.0   0.07
O      2  0.0788230000000 -0.6343100000000 -0.3588120000000 1.0   0.02
O      2  0.0420540000000 -0.5066470000000 -0.1228640000000 1.0   0.08
O      2  0.3827960000000 -0.4400180000000 -0.2268770000000 1.0   0.08
O      2 -0.0628810000000 -0.3602880000000 -0.3010880000000 1.0   0.07
F      3  0.3041040000000  0.2319610000000  0.0817580000000 1.0   0.11
F      3 -0.3041040000000 -0.2319610000000 -0.0817580000000 1.0   0.11
F      3  0.3979770000000 -0.2328710000000 -0.4337380000000 1.0   0.13
F      3 -0.3979770000000  0.2328710000000  0.4337380000000 1.0   0.13
S      4 -0.3792680000000  0.1535140000000 -0.1562280000000 1.0   0.01
S      4  0.3792680000000 -0.1535140000000  0.1562280000000 1.0   0.01
S      4 -0.1061050000000  0.4883080000000  0.2568430000000 1.0   0.02
S      4  0.1061050000000 -0.4883080000000 -0.2568430000000 1.0   0.02
Fe     5 -0.3268980000000 -0.4545710000000 -0.0427110000000 1.0   3.64
Fe     5  0.3268980000000  0.4545710000000  0.0427110000000 1.0   3.64
Fe     5 -0.4198590000000 -0.2710630000000 -0.2753810000000 1.0   3.73
Fe     5  0.4198590000000  0.2710630000000  0.2753810000000 1.0   3.73
END
