TITL 4LiFeSO4F-200818-023336-7def70 0.0242 397.234105 -1.51320236E+004 16.0013 16.2216 32 (P212121) n - 1
REM
REM Run started: Tue, 18 Aug 2020 03:39:40 +0100 in /lustre/scratch/uccabz1/launch_tmp/launcher_2020-08-18-01-33-32-150782
REM CASTEP 20.1 from code version af48c487+ pr-geom-scf-spinfix Tue Jun 2 15:39:59 2020 +0100
REM Functional Perdew Burke Ernzerhof Relativity Koelling-Harmon Dispersion off
REM Cut-off 340.0000 eV Grid scale 1.7500 Gmax 16.5316 1/A FBSC none
REM MP grid 2 2 3 Offset 0.000 0.000 0.000 No. kpts 2 Spacing 0.07
REM Total runtime: 3996.04 s
REM Overall efficiency: 70.0909 %
REM
REM 4LiFeSO4F.cell (79c870615ff1d88195b1fe3fe805288c)
REM
REM compiler GCC version 4.9.2
REM options -cpp -iprefix /lustre/shared/ucl/apps/gcc/4.9.2/bin/../lib/gcc/x86_64-unknown-linux-gnu/4.9.2/ -mtune=corei7 -march=x86-64 -g -Og
REM COMMAND_LINE
REM seed 830706778 -441435727 290255596 -1967817769 -1507900095 -909529056 847443955 400707433 1043157941 -2055126525 -1731996477 -348513187
REM
REM S 3|1.8|5|6|7|30:31:32(qc=5)
REM O 2|1.5|12|13|15|20:21(qc=5)
REM Li 1|1.3|8|9|10|10U:20(qc=5)
REM Fe 3|2.2|2.0|1.0|8|9|10|40:41:32(qc=5)
REM F 2|1.6|10|12|13|20:21(qc=5)
REM 
CELL 1.54180    7.28730    8.67736    6.28192   90.00000   90.00000   90.00000
LATT -1
SFAC Li O  F  S  Fe 
Li     1 -0.1639290000000  0.4487520000000  0.3422610000000 1.0  -0.01
Li     1  0.1639290000000 -0.0512480000000  0.1577390000000 1.0  -0.01
Li     1  0.3360710000000  0.0512480000000 -0.3422610000000 1.0  -0.01
Li     1 -0.3360710000000 -0.4487520000000 -0.1577390000000 1.0  -0.01
O      2 -0.5006450000000 -0.3460900000000  0.4806350000000 1.0   0.04
O      2 -0.3270740000000 -0.4195510000000  0.1598820000000 1.0   0.01
O      2 -0.3717530000000 -0.1438760000000  0.2436750000000 1.0   0.07
O      2 -0.6318230000000 -0.2961040000000  0.1250710000000 1.0   0.05
O      2  0.5006450000000  0.1539100000000  0.0193650000000 1.0   0.04
O      2  0.3270740000000  0.0804490000000  0.3401180000000 1.0   0.01
O      2  0.3717530000000  0.3561240000000  0.2563250000000 1.0   0.07
O      2  0.6318230000000  0.2038960000000  0.3749290000000 1.0   0.05
O      2 -0.0006450000000 -0.1539100000000 -0.4806350000000 1.0   0.04
O      2  0.1729260000000 -0.0804490000000 -0.1598820000000 1.0   0.01
O      2  0.1282470000000 -0.3561240000000 -0.2436750000000 1.0   0.07
O      2 -0.1318230000000 -0.2038960000000 -0.1250710000000 1.0   0.05
O      2  0.0006450000000  0.3460900000000 -0.0193650000000 1.0   0.04
O      2 -0.1729260000000  0.4195510000000 -0.3401180000000 1.0   0.01
O      2 -0.1282470000000  0.1438760000000 -0.2563250000000 1.0   0.07
O      2  0.1318230000000  0.2961040000000 -0.3749290000000 1.0   0.05
F      3 -0.0725540000000  0.0350130000000  0.1864400000000 1.0   0.10
F      3  0.0725540000000 -0.4649870000000  0.3135600000000 1.0   0.10
F      3  0.4274460000000  0.4649870000000 -0.1864400000000 1.0   0.10
F      3 -0.4274460000000 -0.0350130000000 -0.3135600000000 1.0   0.10
S      4 -0.4569740000000 -0.3035860000000  0.2535220000000 1.0   0.01
S      4  0.4569740000000  0.1964140000000  0.2464780000000 1.0   0.01
S      4  0.0430260000000 -0.1964140000000 -0.2535220000000 1.0   0.01
S      4 -0.0430260000000  0.3035860000000 -0.2464780000000 1.0   0.01
Fe     5  0.2254510000000  0.4990310000000  0.0405790000000 1.0   3.74
Fe     5 -0.2254510000000 -0.0009690000000  0.4594210000000 1.0   3.74
Fe     5 -0.2745490000000  0.0009690000000 -0.0405790000000 1.0   3.74
Fe     5  0.2745490000000 -0.4990310000000 -0.4594210000000 1.0   3.74
END
