TITL 4LiFeSO4F-200804-073505-ae8698 -0.0105 446.267258 -1.51318908E+004 16.0000 16.2617 32 (Pc) n - 1
REM
REM Run started: Tue, 04 Aug 2020 14:27:42 +0100 in /lustre/scratch/uccabz1/launch_tmp/launcher_2020-08-04-06-35-02-451224
REM CASTEP 20.1 from code version af48c487+ pr-geom-scf-spinfix Tue Jun 2 15:39:59 2020 +0100
REM Functional Perdew Burke Ernzerhof Relativity Koelling-Harmon Dispersion off
REM Cut-off 340.0000 eV Grid scale 1.7500 Gmax 16.5316 1/A FBSC none
REM MP grid 3 2 3 Offset 0.000 0.000 0.000 No. kpts 6 Spacing 0.07
REM Total runtime: 27405.3 s
REM Overall efficiency: 74.7 %
REM
REM 4LiFeSO4F.cell (79c870615ff1d88195b1fe3fe805288c)
REM
REM compiler GCC version 4.9.2
REM options -cpp -iprefix /lustre/shared/ucl/apps/gcc/4.9.2/bin/../lib/gcc/x86_64-unknown-linux-gnu/4.9.2/ -mtune=corei7 -march=x86-64 -g -Og
REM COMMAND_LINE
REM seed 798508359 -553593300 692424421 1581707624 -1394320230 329428491 1625413050 83007323 975049989 202231682 136828324 -1238057192
REM
REM S 3|1.8|5|6|7|30:31:32(qc=5)
REM O 2|1.5|12|13|15|20:21(qc=5)
REM Li 1|1.3|8|9|10|10U:20(qc=5)
REM Fe 3|2.2|2.0|1.0|8|9|10|40:41:32(qc=5)
REM F 2|1.6|10|12|13|20:21(qc=5)
REM 
CELL 1.54180    6.99652   10.46185    6.76426   90.00000   90.00000  115.66651
LATT -1
SFAC Li O  F  S  Fe 
Li     1 -0.0764730000000  0.0899010000000 -0.4568510000000 1.0  -0.01
Li     1  0.4235270000000 -0.4100990000000  0.4568510000000 1.0  -0.01
Li     1 -0.3628540000000 -0.2137630000000 -0.1824110000000 1.0  -0.01
Li     1  0.1371460000000  0.2862370000000  0.1824110000000 1.0  -0.01
O      2 -0.1919120000000  0.1379450000000  0.1070560000000 1.0   0.06
O      2 -0.5333480000000  0.0275260000000  0.2855860000000 1.0   0.06
O      2 -0.2480370000000 -0.0473240000000  0.3556660000000 1.0   0.01
O      2 -0.4471890000000 -0.1117310000000  0.0440040000000 1.0   0.07
O      2  0.3080880000000  0.6379450000000 -0.1070560000000 1.0   0.06
O      2 -0.0333480000000  0.5275260000000 -0.2855860000000 1.0   0.06
O      2  0.2519630000000  0.4526760000000 -0.3556660000000 1.0   0.01
O      2  0.0528110000000  0.3882690000000 -0.0440040000000 1.0   0.07
O      2 -0.5739520000000  0.4604900000000  0.2388160000000 1.0   0.01
O      2 -0.3865910000000  0.3683980000000  0.0238020000000 1.0   0.07
O      2 -0.3580360000000  0.3486460000000  0.3870570000000 1.0   0.06
O      2 -0.1836920000000  0.5803100000000  0.2328280000000 1.0   0.06
O      2 -0.0739520000000 -0.0395100000000 -0.2388160000000 1.0   0.01
O      2  0.1134090000000 -0.1316020000000 -0.0238020000000 1.0   0.07
O      2  0.1419640000000 -0.1513540000000 -0.3870570000000 1.0   0.06
O      2  0.3163080000000  0.0803100000000 -0.2328280000000 1.0   0.06
F      3 -0.2632040000000  0.1645390000000 -0.3536960000000 1.0   0.10
F      3  0.2367960000000 -0.3354610000000  0.3536960000000 1.0   0.10
F      3  0.1763340000000  0.1787580000000  0.3993640000000 1.0   0.07
F      3 -0.3236660000000 -0.3212420000000 -0.3993640000000 1.0   0.07
S      4 -0.3518930000000  0.0014360000000  0.2033370000000 1.0   0.01
S      4  0.1481070000000  0.5014360000000 -0.2033370000000 1.0   0.01
S      4 -0.3779720000000  0.4384050000000  0.2204220000000 1.0   0.02
S      4  0.1220280000000 -0.0615950000000 -0.2204220000000 1.0   0.02
Fe     5 -0.2637870000000  0.2530980000000 -0.1061180000000 1.0   3.68
Fe     5  0.2362130000000 -0.2469020000000  0.1061180000000 1.0   3.68
Fe     5  0.4373070000000  0.1599640000000  0.4935190000000 1.0   3.74
Fe     5 -0.0626930000000 -0.3400360000000 -0.4935190000000 1.0   3.74
END
