TITL 4LiFeSO4F-200804-064304-84142c -0.2162 443.406670 -1.51298059E+004 15.9971 16.1102 32 (Cm) n - 1
REM
REM Run started: Tue, 04 Aug 2020 20:21:37 +0100 in /lustre/scratch/uccabz1/launch_tmp/launcher_2020-08-04-05-42-57-818846
REM CASTEP 20.1 from code version af48c487+ pr-geom-scf-spinfix Tue Jun 2 15:39:59 2020 +0100
REM Functional Perdew Burke Ernzerhof Relativity Koelling-Harmon Dispersion off
REM Cut-off 340.0000 eV Grid scale 1.7500 Gmax 16.5316 1/A FBSC none
REM MP grid 2 2 2 Offset 0.000 0.000 0.000 No. kpts 3 Spacing 0.07
REM Total runtime: 53544.6 s
REM Overall efficiency: 72.5 %
REM
REM 4LiFeSO4F.cell (79c870615ff1d88195b1fe3fe805288c)
REM
REM compiler GCC version 4.9.2
REM options -cpp -iprefix /lustre/shared/ucl/apps/gcc/4.9.2/bin/../lib/gcc/x86_64-unknown-linux-gnu/4.9.2/ -mtune=corei7 -march=x86-64 -g -Og
REM COMMAND_LINE
REM seed 1958766337 944911788 -1944226589 1740485348 1090997338 -77760874 -1304511731 -1616871864 -412721209 1467387412 455178486 189034515
REM
REM S 3|1.8|5|6|7|30:31:32(qc=5)
REM O 2|1.5|12|13|15|20:21(qc=5)
REM Li 1|1.3|8|9|10|10U:20(qc=5)
REM Fe 3|2.2|2.0|1.0|8|9|10|40:41:32(qc=5)
REM F 2|1.6|10|12|13|20:21(qc=5)
REM 
CELL 1.54180    7.57530    7.68068    7.68068   83.69225   87.47610   87.47610
LATT -1
SFAC Li O  F  S  Fe 
Li     1  0.3000080000000  0.3813600000000  0.0031250000000 1.0  -0.02
Li     1  0.3000080000000  0.0031250000000  0.3813600000000 1.0  -0.02
Li     1 -0.0531950000000 -0.5027740000000 -0.5027740000000 1.0  -0.02
Li     1  0.3239620000000  0.3518200000000  0.3518200000000 1.0   0.00
O      2 -0.2976820000000  0.5758980000000 -0.1662500000000 1.0   0.05
O      2 -0.1084850000000  0.3458760000000 -0.2736210000000 1.0   0.05
O      2 -0.2525380000000  0.2980120000000  0.0238190000000 1.0   0.04
O      2 -0.0127500000000  0.5025130000000 -0.0314970000000 1.0   0.06
O      2 -0.2976820000000 -0.1662500000000  0.5758980000000 1.0   0.05
O      2 -0.1084850000000 -0.2736210000000  0.3458760000000 1.0   0.05
O      2 -0.2525380000000  0.0238190000000  0.2980120000000 1.0   0.04
O      2 -0.0127500000000 -0.0314970000000  0.5025130000000 1.0   0.06
O      2  0.5293950000000  0.0663510000000 -0.1916760000000 1.0   0.09
O      2  0.3993590000000  0.3661410000000 -0.2306540000000 1.0   0.01
O      2  0.2071980000000  0.1154510000000 -0.1853930000000 1.0   0.07
O      2  0.3863590000000  0.1682060000000 -0.4642940000000 1.0   0.01
O      2  0.5293950000000 -0.1916760000000  0.0663510000000 1.0   0.09
O      2  0.3993590000000 -0.2306540000000  0.3661410000000 1.0   0.01
O      2  0.2071980000000 -0.1853930000000  0.1154510000000 1.0   0.07
O      2  0.3863590000000 -0.4642940000000  0.1682060000000 1.0   0.01
F      3  0.0914050000000  0.3760710000000  0.3760710000000 1.0   0.01
F      3 -0.1371030000000 -0.0689390000000 -0.0689390000000 1.0   0.10
F      3  0.3024600000000 -0.2566780000000 -0.2566780000000 1.0   0.22
F      3  0.3872610000000  0.1719550000000  0.1719550000000 1.0   0.06
S      4 -0.1726540000000  0.4297300000000 -0.1088300000000 1.0   0.02
S      4 -0.1726540000000 -0.1088300000000  0.4297300000000 1.0   0.02
S      4  0.3787990000000  0.1844600000000 -0.2720040000000 1.0   0.01
S      4  0.3787990000000 -0.2720040000000  0.1844600000000 1.0   0.01
Fe     5 -0.0262880000000  0.0874710000000 -0.2786620000000 1.0   3.68
Fe     5 -0.0262880000000 -0.2786620000000  0.0874710000000 1.0   3.68
Fe     5 -0.3824040000000  0.0639700000000  0.0639700000000 1.0   3.73
Fe     5 -0.4688620000000 -0.2143310000000 -0.2143310000000 1.0   3.76
END
