TITL 4LiFeSO4F-200818-005713-2f6f3b -0.0148 441.798865 -1.51274692E+004 -15.3360 16.5624 32 (C2) n - 1
REM
REM Run started: Wed, 19 Aug 2020 02:47:55 +0100 in /lustre/scratch/uccabz1/launch_tmp/launcher_2020-08-18-07-34-18-689462
REM CASTEP 20.1 from code version af48c487+ pr-geom-scf-spinfix Tue Jun 2 15:39:59 2020 +0100
REM Functional Perdew Burke Ernzerhof Relativity Koelling-Harmon Dispersion off
REM Cut-off 340.0000 eV Grid scale 1.7500 Gmax 16.5316 1/A FBSC none
REM MP grid 3 3 2 Offset 0.000 0.000 0.000 No. kpts 8 Spacing 0.07
REM Total runtime: 73548.2 s
REM Overall efficiency: 83.0909 %
REM
REM
REM
REM compiler GCC version 4.9.2
REM options -cpp -iprefix /lustre/shared/ucl/apps/gcc/4.9.2/bin/../lib/gcc/x86_64-unknown-linux-gnu/4.9.2/ -mtune=corei7 -march=x86-64 -g -Og
REM COMMAND_LINE
REM seed 426156851 85636251 972416424 -1034409811 364842235 514494338 895786103 1097694918 1793592033 -1812968846 1765496653 -1245667909
REM
REM S 3|1.8|5|6|7|30:31:32(qc=5)
REM O 2|1.5|12|13|15|20:21(qc=5)
REM Li 1|1.3|8|9|10|10U:20(qc=5)
REM Fe 3|2.2|2.0|1.0|8|9|10|40:41:32(qc=5)
REM F 2|1.6|10|12|13|20:21(qc=5)
REM 
CELL 1.54180    6.18561    6.82599   11.19155   72.24412   93.32845  100.97519
LATT -1
SFAC Li O  F  S  Fe 
Li     1 -0.1563070000000  0.1788610000000  0.1387390000000 1.0   0.01
Li     1  0.1563070000000 -0.3176000000000  0.1387390000000 1.0   0.01
Li     1 -0.1572850000000  0.1527320000000  0.3737300000000 1.0   0.02
Li     1  0.1572850000000 -0.5264620000000  0.3737300000000 1.0   0.02
O      2 -0.4675840000000  0.4925200000000 -0.3324640000000 1.0  -0.11
O      2 -0.5231560000000  0.5374190000000 -0.7200230000000 1.0   0.10
O      2 -0.6946060000000  0.5268450000000 -0.1648610000000 1.0  -0.07
O      2 -0.3034720000000  0.0666330000000 -0.1480030000000 1.0  -0.07
O      2  0.4675840000000 -0.1600560000000 -0.3324640000000 1.0  -0.11
O      2  0.5231560000000  0.1826040000000 -0.7200230000000 1.0   0.10
O      2  0.6946060000000 -0.3619840000000 -0.1648610000000 1.0  -0.07
O      2  0.3034720000000  0.0813690000000 -0.1480030000000 1.0  -0.07
O      2 -0.1005890000000 -0.3916910000000  0.4365340000000 1.0  -0.08
O      2 -0.5512890000000 -0.1919880000000  0.0170130000000 1.0  -0.04
O      2 -0.0437850000000 -0.2077310000000  0.0156840000000 1.0  -0.42
O      2 -0.1694770000000 -0.0651060000000  0.2757020000000 1.0  -0.01
O      2  0.1005890000000 -0.0448430000000  0.4365340000000 1.0  -0.08
O      2  0.5512890000000  0.1749760000000  0.0170130000000 1.0  -0.04
O      2  0.0437850000000  0.1920470000000  0.0156840000000 1.0  -0.42
O      2  0.1694770000000 -0.2105960000000  0.2757020000000 1.0  -0.01
F      3 -0.3012320000000  0.2170720000000 -0.5001430000000 1.0  -0.12
F      3  0.3012320000000  0.2830720000000 -0.5001430000000 1.0  -0.12
F      3 -0.5000000000000 -0.2237190000000  0.4474380000000 1.0  -0.19
F      3  0.0000000000000  0.3757820000000  0.2484360000000 1.0   0.01
S      4  0.5000000000000  0.4010960000000 -0.8021920000000 1.0   0.30
S      4  0.0000000000000 -0.1755770000000  0.3511540000000 1.0  -0.00
S      4 -0.5000000000000  0.0322960000000 -0.0645920000000 1.0  -0.02
S      4 -0.5000000000000 -0.3737540000000 -0.2524920000000 1.0  -0.01
Fe     5 -0.4145870000000 -0.5043940000000  0.4935980000000 1.0  -3.94
Fe     5  0.4145870000000  0.0107970000000  0.4935980000000 1.0  -3.94
Fe     5  0.0000000000000  0.0376060000000 -0.0752110000000 1.0  -2.62
Fe     5  0.5000000000000  0.5016490000000 -0.0032970000000 1.0  -3.30
END
