TITL 4LiFeSO4F-200804-071908-bda5b3 -0.0275 415.493456 -1.51319037E+004 16.0000 16.2710 32 (Aea2) n - 1
REM
REM Run started: Tue, 04 Aug 2020 11:46:45 +0100 in /lustre/scratch/uccabz1/launch_tmp/launcher_2020-08-04-06-19-01-737263
REM CASTEP 20.1 from code version af48c487+ pr-geom-scf-spinfix Tue Jun 2 15:39:59 2020 +0100
REM Functional Perdew Burke Ernzerhof Relativity Koelling-Harmon Dispersion off
REM Cut-off 340.0000 eV Grid scale 1.7500 Gmax 16.5316 1/A FBSC none
REM MP grid 2 2 3 Offset 0.000 0.000 0.000 No. kpts 4 Spacing 0.07
REM Total runtime: 16340.2 s
REM Overall efficiency: 76.6 %
REM
REM 4LiFeSO4F.cell (79c870615ff1d88195b1fe3fe805288c)
REM
REM compiler GCC version 4.9.2
REM options -cpp -iprefix /lustre/shared/ucl/apps/gcc/4.9.2/bin/../lib/gcc/x86_64-unknown-linux-gnu/4.9.2/ -mtune=corei7 -march=x86-64 -g -Og
REM COMMAND_LINE
REM seed 918531698 -1433356799 1961185643 -640396462 1505470622 424718459 52080831 -1853431547 -1323896526 -1027431716 1392852383 -1659874646
REM
REM S 3|1.8|5|6|7|30:31:32(qc=5)
REM O 2|1.5|12|13|15|20:21(qc=5)
REM Li 1|1.3|8|9|10|10U:20(qc=5)
REM Fe 3|2.2|2.0|1.0|8|9|10|40:41:32(qc=5)
REM F 2|1.6|10|12|13|20:21(qc=5)
REM 
CELL 1.54180    9.50331    8.79947    5.90325   90.00000   90.00000  122.68317
LATT -1
SFAC Li O  F  S  Fe 
Li     1  0.2259200000000  0.2049600000000 -0.2631560000000 1.0  -0.01
Li     1  0.0209600000000 -0.2049600000000  0.2631560000000 1.0  -0.01
Li     1 -0.4790400000000 -0.2049600000000  0.2368440000000 1.0  -0.01
Li     1 -0.2740800000000  0.2049600000000 -0.2368440000000 1.0  -0.01
O      2 -0.3112310000000  0.3052780000000  0.4656070000000 1.0   0.05
O      2 -0.3074790000000  0.3093700000000  0.0446040000000 1.0   0.05
O      2 -0.3404390000000  0.0498230000000  0.2512200000000 1.0   0.02
O      2 -0.0716960000000  0.3402340000000  0.2551110000000 1.0   0.07
O      2 -0.6165090000000 -0.3052780000000 -0.4656070000000 1.0   0.05
O      2 -0.6168490000000 -0.3093700000000 -0.0446040000000 1.0   0.05
O      2 -0.3902620000000 -0.0498230000000 -0.2512200000000 1.0   0.02
O      2 -0.4119300000000 -0.3402340000000 -0.2551110000000 1.0   0.07
O      2 -0.1165090000000 -0.3052780000000 -0.0343930000000 1.0   0.05
O      2 -0.1168490000000 -0.3093700000000 -0.4553960000000 1.0   0.05
O      2  0.1097380000000 -0.0498230000000 -0.2487800000000 1.0   0.02
O      2  0.0880700000000 -0.3402340000000 -0.2448890000000 1.0   0.07
O      2  0.1887690000000  0.3052780000000  0.0343930000000 1.0   0.05
O      2  0.1925210000000  0.3093700000000  0.4553960000000 1.0   0.05
O      2  0.1595610000000  0.0498230000000  0.2487800000000 1.0   0.02
O      2  0.4283040000000  0.3402340000000  0.2448890000000 1.0   0.07
F      3  0.1465920000000 -0.3204230000000  0.2477770000000 1.0   0.11
F      3  0.4670150000000  0.3204230000000 -0.2477770000000 1.0   0.11
F      3 -0.0329850000000  0.3204230000000 -0.2522230000000 1.0   0.11
F      3 -0.3534080000000 -0.3204230000000  0.2522230000000 1.0   0.11
S      4 -0.2612610000000  0.2459520000000  0.2550680000000 1.0   0.01
S      4 -0.5072130000000 -0.2459520000000 -0.2550680000000 1.0   0.01
S      4 -0.0072130000000 -0.2459520000000 -0.2449320000000 1.0   0.01
S      4  0.2387390000000  0.2459520000000  0.2449320000000 1.0   0.01
Fe     5 -0.3753430000000  0.4996050000000 -0.0023890000000 1.0   3.71
Fe     5  0.1250520000000 -0.4996050000000  0.0023890000000 1.0   3.71
Fe     5 -0.3749480000000 -0.4996050000000  0.4976110000000 1.0   3.71
Fe     5  0.1246570000000  0.4996050000000 -0.4976110000000 1.0   3.71
END
