TITL 4LiFeSO4F-200818-031404-187f54 -0.0143 484.101662 -1.51303125E+004 16.0000 16.2620 32 (P-1) n - 1
REM
REM Run started: Tue, 18 Aug 2020 20:43:41 +0100 in /lustre/scratch/uccabz1/launch_tmp/launcher_2020-08-18-02-13-53-068084
REM CASTEP 20.1 from code version af48c487+ pr-geom-scf-spinfix Tue Jun 2 15:39:59 2020 +0100
REM Functional Perdew Burke Ernzerhof Relativity Koelling-Harmon Dispersion off
REM Cut-off 340.0000 eV Grid scale 1.7500 Gmax 16.5316 1/A FBSC none
REM MP grid 4 3 1 Offset 0.000 0.000 0.000 No. kpts 6 Spacing 0.07
REM Total runtime: 63134.1 s
REM Overall efficiency: 85.3333 %
REM
REM 4LiFeSO4F.cell (79c870615ff1d88195b1fe3fe805288c)
REM
REM compiler GCC version 4.9.2
REM options -cpp -iprefix /lustre/shared/ucl/apps/gcc/4.9.2/bin/../lib/gcc/x86_64-unknown-linux-gnu/4.9.2/ -mtune=corei7 -march=x86-64 -g -Og
REM COMMAND_LINE
REM seed -208608140 -1204071213 677231036 1349482224 -1811462478 -396730699 1777726252 605812016 442453483 -330114636 -1500429789 -1803239400
REM
REM S 3|1.8|5|6|7|30:31:32(qc=5)
REM O 2|1.5|12|13|15|20:21(qc=5)
REM Li 1|1.3|8|9|10|10U:20(qc=5)
REM Fe 3|2.2|2.0|1.0|8|9|10|40:41:32(qc=5)
REM F 2|1.6|10|12|13|20:21(qc=5)
REM 
CELL 1.54180    4.67089    7.08785   15.40206   78.18020   76.85812   82.45420
LATT -1
SFAC Li O  F  S  Fe 
Li     1 -0.3525870000000  0.3094280000000  0.0902220000000 1.0  -0.01
Li     1  0.3525870000000 -0.3094280000000 -0.0902220000000 1.0  -0.01
Li     1 -0.2176770000000  0.0633400000000 -0.4132760000000 1.0  -0.01
Li     1  0.2176770000000 -0.0633400000000  0.4132760000000 1.0  -0.01
O      2 -0.1533100000000  0.3056040000000 -0.0293710000000 1.0   0.01
O      2 -0.0929450000000  0.3187320000000 -0.1922160000000 1.0   0.10
O      2  0.2860980000000  0.1412060000000 -0.1124960000000 1.0   0.08
O      2  0.2312560000000  0.4963220000000 -0.1377550000000 1.0   0.00
O      2  0.1533100000000 -0.3056040000000  0.0293710000000 1.0   0.01
O      2  0.0929450000000 -0.3187320000000  0.1922160000000 1.0   0.10
O      2 -0.2860980000000 -0.1412060000000  0.1124960000000 1.0   0.08
O      2 -0.2312560000000 -0.4963220000000  0.1377550000000 1.0   0.00
O      2  0.2202700000000 -0.1360440000000 -0.4624940000000 1.0   0.01
O      2  0.0885380000000 -0.3159320000000 -0.3094300000000 1.0   0.09
O      2  0.4491880000000 -0.0763340000000 -0.3425150000000 1.0   0.01
O      2  0.5866410000000 -0.3823710000000 -0.4002620000000 1.0   0.08
O      2 -0.2202700000000  0.1360440000000  0.4624940000000 1.0   0.01
O      2 -0.0885380000000  0.3159320000000  0.3094300000000 1.0   0.09
O      2 -0.4491880000000  0.0763340000000  0.3425150000000 1.0   0.01
O      2 -0.5866410000000  0.3823710000000  0.4002620000000 1.0   0.08
F      3 -0.2084770000000  0.2162940000000 -0.3274950000000 1.0   0.10
F      3  0.2084770000000 -0.2162940000000  0.3274950000000 1.0   0.10
F      3  0.3260650000000  0.1773300000000  0.1497360000000 1.0   0.13
F      3 -0.3260650000000 -0.1773300000000 -0.1497360000000 1.0   0.13
S      4  0.0715950000000  0.3212720000000 -0.1140110000000 1.0   0.01
S      4 -0.0715950000000 -0.3212720000000  0.1140110000000 1.0   0.01
S      4  0.3397470000000 -0.2236200000000 -0.3798560000000 1.0   0.01
S      4 -0.3397470000000  0.2236200000000  0.3798560000000 1.0   0.01
Fe     5 -0.3155130000000  0.0884330000000 -0.1881290000000 1.0   3.72
Fe     5  0.3155130000000 -0.0884330000000  0.1881290000000 1.0   3.72
Fe     5  0.1488870000000 -0.4861570000000  0.3174460000000 1.0   3.66
Fe     5 -0.1488870000000  0.4861570000000 -0.3174460000000 1.0   3.66
END
