TITL 4LiFeSO4F-200818-152421-80b84b 0.1050 559.450355 -1.51270790E+004 16.0000 16.6540 32 (I41) n - 1
REM
REM Run started: Wed, 19 Aug 2020 01:53:25 +0100 in /lustre/scratch/uccabz1/launch_tmp/launcher_2020-08-18-14-24-19-539786
REM CASTEP 20.1 from code version af48c487+ pr-geom-scf-spinfix Tue Jun 2 15:39:59 2020 +0100
REM Functional Perdew Burke Ernzerhof Relativity Koelling-Harmon Dispersion off
REM Cut-off 340.0000 eV Grid scale 1.7500 Gmax 16.5316 1/A FBSC none
REM MP grid 2 2 3 Offset 0.000 0.000 0.000 No. kpts 5 Spacing 0.07
REM Total runtime: 42606.9 s
REM Overall efficiency: 73.75 %
REM
REM 4LiFeSO4F.cell (79c870615ff1d88195b1fe3fe805288c)
REM
REM compiler GCC version 4.9.2
REM options -cpp -iprefix /lustre/shared/ucl/apps/gcc/4.9.2/bin/../lib/gcc/x86_64-unknown-linux-gnu/4.9.2/ -mtune=corei7 -march=x86-64 -g -Og
REM COMMAND_LINE
REM seed 76394017 371888321 674216003 1731075268 66388543 668239113 204809114 -108690878 -878223280 1185346420 -1831081926 328021541
REM
REM S 3|1.8|5|6|7|30:31:32(qc=5)
REM O 2|1.5|12|13|15|20:21(qc=5)
REM Li 1|1.3|8|9|10|10U:20(qc=5)
REM Fe 3|2.2|2.0|1.0|8|9|10|40:41:32(qc=5)
REM F 2|1.6|10|12|13|20:21(qc=5)
REM 
CELL 1.54180    9.43792    9.43792    9.16431  120.99263  120.99263   90.00000
LATT -1
SFAC Li O  F  S  Fe 
Li     1  0.3647510000000  0.3931970000000  0.4480680000000 1.0  -0.00
Li     1  0.0833160000000  0.0548700000000  0.4480680000000 1.0  -0.00
Li     1  0.1431970000000  0.3333160000000 -0.0519320000000 1.0  -0.00
Li     1 -0.1951300000000 -0.3852490000000 -0.0519320000000 1.0  -0.00
O      2 -0.2438620000000 -0.1580160000000  0.3705650000000 1.0   0.14
O      2 -0.0420860000000 -0.1998860000000  0.2773390000000 1.0   0.02
O      2 -0.2746380000000 -0.4626400000000  0.1023600000000 1.0   0.02
O      2 -0.0399880000000 -0.2983360000000  0.4875840000000 1.0   0.10
O      2  0.6144270000000 -0.4714190000000  0.3705650000000 1.0   0.14
O      2  0.3194250000000 -0.5227750000000  0.2773390000000 1.0   0.02
O      2  0.3769970000000 -0.4350000000000  0.1023600000000 1.0   0.02
O      2  0.5275720000000 -0.2140800000000  0.4875840000000 1.0   0.10
O      2  0.5919840000000 -0.1355730000000 -0.1294350000000 1.0   0.14
O      2  0.5501140000000 -0.4305750000000 -0.2226610000000 1.0   0.02
O      2  0.2873600000000 -0.3730030000000 -0.3976400000000 1.0   0.02
O      2  0.4516640000000 -0.2224280000000 -0.0124160000000 1.0   0.10
O      2  0.2785810000000  0.0061380000000 -0.1294350000000 1.0   0.14
O      2  0.2272250000000  0.2079140000000 -0.2226610000000 1.0   0.02
O      2  0.3150000000000 -0.0246380000000 -0.3976400000000 1.0   0.02
O      2  0.5359200000000  0.2100120000000 -0.0124160000000 1.0   0.10
F      3 -0.0966810000000 -0.3692250000000 -0.1885430000000 1.0   0.11
F      3 -0.0918610000000  0.1806830000000 -0.1885430000000 1.0   0.11
F      3  0.3807750000000  0.1581390000000  0.3114570000000 1.0   0.11
F      3 -0.0693170000000  0.1533190000000  0.3114570000000 1.0   0.11
S      4 -0.1531130000000 -0.2860050000000  0.3025120000000 1.0   0.01
S      4  0.4556250000000 -0.4114830000000  0.3025120000000 1.0   0.01
S      4  0.4639950000000 -0.2943750000000 -0.1974880000000 1.0   0.01
S      4  0.3385170000000  0.0968870000000 -0.1974880000000 1.0   0.01
Fe     5 -0.2902300000000  0.1153180000000  0.0907220000000 1.0   3.61
Fe     5  0.3809520000000 -0.0245960000000  0.0907220000000 1.0   3.61
Fe     5 -0.1346820000000  0.6309520000000 -0.4092780000000 1.0   3.61
Fe     5 -0.2745960000000 -0.0402300000000 -0.4092780000000 1.0   3.61
END
