TITL 4LiFeSO4F-200804-063544-b74bae 0.0609 515.550866 -1.51298448E+004 16.0000 16.3458 32 (P2) n - 1
REM
REM Run started: Wed, 05 Aug 2020 00:17:07 +0100 in /lustre/scratch/uccabz1/launch_tmp/launcher_2020-08-04-05-35-26-964851
REM CASTEP 20.1 from code version af48c487+ pr-geom-scf-spinfix Tue Jun 2 15:39:59 2020 +0100
REM Functional Perdew Burke Ernzerhof Relativity Koelling-Harmon Dispersion off
REM Cut-off 340.0000 eV Grid scale 1.7500 Gmax 16.5316 1/A FBSC none
REM MP grid 3 2 1 Offset 0.000 0.000 0.000 No. kpts 2 Spacing 0.07
REM Total runtime: 56007.3 s
REM Overall efficiency: 71.9167 %
REM
REM 4LiFeSO4F.cell (79c870615ff1d88195b1fe3fe805288c)
REM
REM compiler GCC version 4.9.2
REM options -cpp -iprefix /lustre/shared/ucl/apps/gcc/4.9.2/bin/../lib/gcc/x86_64-unknown-linux-gnu/4.9.2/ -mtune=corei7 -march=x86-64 -g -Og
REM COMMAND_LINE
REM seed -488977214 128604991 1451557473 -188581821 -985469327 -1707095861 1887451950 1495061240 1053396965 -1370608172 353436884 775721237
REM
REM S 3|1.8|5|6|7|30:31:32(qc=5)
REM O 2|1.5|12|13|15|20:21(qc=5)
REM Li 1|1.3|8|9|10|10U:20(qc=5)
REM Fe 3|2.2|2.0|1.0|8|9|10|40:41:32(qc=5)
REM F 2|1.6|10|12|13|20:21(qc=5)
REM 
CELL 1.54180    4.79959    7.45410   14.41351   91.21801   90.00000   90.00000
LATT -1
SFAC Li O  F  S  Fe 
Li     1 -0.2241260000000  0.1642060000000 -0.3073780000000 1.0  -0.01
Li     1 -0.2241260000000 -0.1642060000000  0.3073780000000 1.0  -0.01
Li     1  0.4132030000000  0.4881040000000 -0.1731600000000 1.0  -0.01
Li     1  0.4132030000000 -0.4881040000000  0.1731600000000 1.0  -0.01
O      2 -0.3266720000000 -0.4113300000000 -0.3318800000000 1.0   0.09
O      2  0.1126630000000 -0.3445570000000 -0.4091390000000 1.0   0.08
O      2  0.0036140000000 -0.6559900000000 -0.3637940000000 1.0   0.02
O      2  0.1070540000000 -0.4243180000000 -0.2432570000000 1.0   0.01
O      2 -0.3266720000000  0.4113300000000  0.3318800000000 1.0   0.09
O      2  0.1126630000000  0.3445570000000  0.4091390000000 1.0   0.08
O      2  0.0036140000000  0.6559900000000  0.3637940000000 1.0   0.02
O      2  0.1070540000000  0.4243180000000  0.2432570000000 1.0   0.01
O      2 -0.6128230000000  0.0642310000000 -0.0888840000000 1.0   0.05
O      2 -0.1726570000000  0.1988360000000 -0.0301570000000 1.0   0.05
O      2 -0.3538840000000  0.2699640000000 -0.1856130000000 1.0   0.02
O      2 -0.1624510000000 -0.0272280000000 -0.1590190000000 1.0   0.06
O      2 -0.6128230000000 -0.0642310000000  0.0888840000000 1.0   0.05
O      2 -0.1726570000000 -0.1988360000000  0.0301570000000 1.0   0.05
O      2 -0.3538840000000 -0.2699640000000  0.1856130000000 1.0   0.02
O      2 -0.1624510000000  0.0272280000000  0.1590190000000 1.0   0.06
F      3  0.5957990000000  0.0083920000000 -0.3841640000000 1.0   0.11
F      3  0.5957990000000 -0.0083920000000  0.3841640000000 1.0   0.11
F      3  0.3613890000000  0.3451260000000  0.0808590000000 1.0   0.13
F      3  0.3613890000000 -0.3451260000000 -0.0808590000000 1.0   0.13
S      4 -0.0183730000000 -0.4643790000000 -0.3353480000000 1.0   0.01
S      4 -0.0183730000000  0.4643790000000  0.3353480000000 1.0   0.01
S      4 -0.3269820000000  0.1272750000000 -0.1137390000000 1.0   0.02
S      4 -0.3269820000000 -0.1272750000000  0.1137390000000 1.0   0.02
Fe     5  0.4637140000000 -0.2245230000000 -0.3939960000000 1.0   3.62
Fe     5  0.4637140000000  0.2245230000000  0.3939960000000 1.0   3.62
Fe     5  0.1107400000000 -0.1531360000000 -0.0766040000000 1.0   3.76
Fe     5  0.1107400000000  0.1531360000000  0.0766040000000 1.0   3.76
END
