TITL 4LiFeSO4F-200804-062410-3455d2 -0.0365 482.305042 -1.51297077E+004 16.0000 16.3531 32 (Cc) n - 1
REM
REM Run started: Tue, 04 Aug 2020 14:41:17 +0100 in /lustre/scratch/uccabz1/launch_tmp/launcher_2020-08-04-05-23-57-476097
REM CASTEP 20.1 from code version af48c487+ pr-geom-scf-spinfix Tue Jun 2 15:39:59 2020 +0100
REM Functional Perdew Burke Ernzerhof Relativity Koelling-Harmon Dispersion off
REM Cut-off 340.0000 eV Grid scale 1.7500 Gmax 16.5316 1/A FBSC none
REM MP grid 2 3 3 Offset 0.000 0.000 0.000 No. kpts 6 Spacing 0.07
REM Total runtime: 32330.2 s
REM Overall efficiency: 75.4 %
REM
REM 4LiFeSO4F.cell (79c870615ff1d88195b1fe3fe805288c)
REM
REM compiler GCC version 4.9.2
REM options -cpp -iprefix /lustre/shared/ucl/apps/gcc/4.9.2/bin/../lib/gcc/x86_64-unknown-linux-gnu/4.9.2/ -mtune=corei7 -march=x86-64 -g -Og
REM COMMAND_LINE
REM seed 611867894 -1498356789 -1106741854 1071806250 1257832587 -925152507 381910389 -693790745 111396549 498310226 -745561151 -874304027
REM
REM S 3|1.8|5|6|7|30:31:32(qc=5)
REM O 2|1.5|12|13|15|20:21(qc=5)
REM Li 1|1.3|8|9|10|10U:20(qc=5)
REM Fe 3|2.2|2.0|1.0|8|9|10|40:41:32(qc=5)
REM F 2|1.6|10|12|13|20:21(qc=5)
REM 
CELL 1.54180   11.28224    7.63203    7.63203   76.43127   58.98877   58.98877
LATT -1
SFAC Li O  F  S  Fe 
Li     1  0.1395990000000  0.1502110000000 -0.1702170000000 1.0  -0.01
Li     1 -0.3604010000000 -0.1702170000000  0.1502110000000 1.0  -0.01
Li     1 -0.2374680000000  0.0226870000000  0.3349840000000 1.0  -0.03
Li     1  0.2625320000000  0.3349840000000  0.0226870000000 1.0  -0.03
O      2 -0.4307000000000  0.1124920000000 -0.3536330000000 1.0   0.01
O      2 -0.3912700000000 -0.1466490000000 -0.0903040000000 1.0   0.01
O      2 -0.2252180000000  0.0224380000000 -0.2621520000000 1.0   0.08
O      2 -0.1958960000000 -0.2139730000000 -0.4630070000000 1.0   0.10
O      2  0.0693000000000 -0.3536330000000  0.1124920000000 1.0   0.01
O      2  0.1087300000000 -0.0903040000000 -0.1466490000000 1.0   0.01
O      2  0.2747820000000 -0.2621520000000  0.0224380000000 1.0   0.08
O      2  0.3041040000000 -0.4630070000000 -0.2139730000000 1.0   0.10
O      2 -0.3312400000000  0.3975080000000  0.1444720000000 1.0   0.06
O      2 -0.1364550000000  0.1925040000000  0.2694540000000 1.0   0.01
O      2 -0.2535560000000  0.5681140000000  0.2701700000000 1.0   0.08
O      2 -0.0684060000000  0.3741280000000 -0.0574620000000 1.0   0.01
O      2  0.1687600000000  0.1444720000000  0.3975080000000 1.0   0.06
O      2  0.3635450000000  0.2694540000000  0.1925040000000 1.0   0.01
O      2  0.2464440000000  0.2701700000000  0.5681140000000 1.0   0.08
O      2  0.4315940000000 -0.0574620000000  0.3741280000000 1.0   0.01
F      3 -0.2858470000000  0.0039670000000  0.1452210000000 1.0   0.08
F      3  0.2141530000000  0.1452210000000  0.0039670000000 1.0   0.08
F      3  0.2338610000000 -0.2786640000000  0.4152100000000 1.0   0.16
F      3 -0.2661390000000  0.4152100000000 -0.2786640000000 1.0   0.16
S      4 -0.3205670000000 -0.0507850000000 -0.2802800000000 1.0   0.01
S      4  0.1794330000000 -0.2802800000000 -0.0507850000000 1.0   0.01
S      4 -0.1910120000000  0.3735830000000  0.1505120000000 1.0   0.01
S      4  0.3089880000000  0.1505120000000  0.3735830000000 1.0   0.01
Fe     5 -0.2107450000000 -0.4347660000000  0.4863940000000 1.0   3.69
Fe     5  0.2892550000000  0.4863940000000 -0.4347660000000 1.0   3.69
Fe     5 -0.2904760000000  0.2165830000000 -0.0595510000000 1.0   3.74
Fe     5  0.2095240000000 -0.0595510000000  0.2165830000000 1.0   3.74
END
