TITL 4LiFeSO4F-200804-100812-16045b 0.0329 523.984432 -1.51298553E+004 16.0000 16.3085 32 (Cc) n - 1
REM
REM Run started: Tue, 04 Aug 2020 19:44:00 +0100 in /lustre/scratch/uccabz1/launch_tmp/launcher_2020-08-04-09-08-08-437632
REM CASTEP 20.1 from code version af48c487+ pr-geom-scf-spinfix Tue Jun 2 15:39:59 2020 +0100
REM Functional Perdew Burke Ernzerhof Relativity Koelling-Harmon Dispersion off
REM Cut-off 340.0000 eV Grid scale 1.7500 Gmax 16.5316 1/A FBSC none
REM MP grid 3 2 2 Offset 0.000 0.000 0.000 No. kpts 5 Spacing 0.07
REM Total runtime: 34728.3 s
REM Overall efficiency: 72.2 %
REM
REM 4LiFeSO4F.cell (79c870615ff1d88195b1fe3fe805288c)
REM
REM compiler GCC version 4.9.2
REM options -cpp -iprefix /lustre/shared/ucl/apps/gcc/4.9.2/bin/../lib/gcc/x86_64-unknown-linux-gnu/4.9.2/ -mtune=corei7 -march=x86-64 -g -Og
REM COMMAND_LINE
REM seed 1154712311 -520120286 -207328456 -1219787717 211047795 -84356431 64555182 -1866076833 -1069936719 -2072081802 2127407379 -782553708
REM
REM S 3|1.8|5|6|7|30:31:32(qc=5)
REM O 2|1.5|12|13|15|20:21(qc=5)
REM Li 1|1.3|8|9|10|10U:20(qc=5)
REM Fe 3|2.2|2.0|1.0|8|9|10|40:41:32(qc=5)
REM F 2|1.6|10|12|13|20:21(qc=5)
REM 
CELL 1.54180    6.47782    9.73414    9.73414  110.95620  103.28176  103.28176
LATT -1
SFAC Li O  F  S  Fe 
Li     1 -0.5191300000000 -0.2570410000000 -0.3715190000000 1.0  -0.02
Li     1 -0.0191300000000  0.1284810000000  0.2429590000000 1.0  -0.02
Li     1  0.0876280000000 -0.4065580000000 -0.1832350000000 1.0  -0.01
Li     1 -0.4123720000000  0.3167650000000  0.0934420000000 1.0  -0.01
O      2  0.5106470000000  0.3339380000000 -0.2794940000000 1.0   0.10
O      2  0.7643110000000  0.6096300000000 -0.1369030000000 1.0   0.05
O      2  0.3666460000000  0.5336610000000 -0.1420310000000 1.0   0.01
O      2  0.4512960000000  0.5284570000000 -0.3788110000000 1.0   0.03
O      2  0.0106470000000  0.2205060000000 -0.1660620000000 1.0   0.10
O      2  0.2643110000000  0.3630970000000  0.1096300000000 1.0   0.05
O      2 -0.1333540000000  0.3579690000000  0.0336610000000 1.0   0.01
O      2 -0.0487040000000  0.1211890000000  0.0284570000000 1.0   0.03
O      2 -0.3304950000000  0.4148710000000  0.3315130000000 1.0   0.04
O      2 -0.0309280000000  0.5247990000000  0.5900180000000 1.0   0.00
O      2  0.0230820000000  0.3680230000000  0.3429740000000 1.0   0.04
O      2 -0.2209470000000  0.2367810000000  0.4425660000000 1.0   0.09
O      2  0.1695050000000 -0.1684870000000 -0.0851290000000 1.0   0.04
O      2  0.4690720000000  0.0900180000000  0.0247990000000 1.0   0.00
O      2  0.5230820000000 -0.1570260000000 -0.1319770000000 1.0   0.04
O      2  0.2790530000000 -0.0574340000000 -0.2632190000000 1.0   0.09
F      3  0.2947010000000  0.2077850000000  0.3565240000000 1.0   0.12
F      3 -0.2052990000000 -0.1434760000000 -0.2922150000000 1.0   0.12
F      3  0.4017240000000 -0.3439070000000  0.4171920000000 1.0   0.16
F      3 -0.0982760000000 -0.0828080000000  0.1560930000000 1.0   0.16
S      4  0.5196590000000  0.5055040000000 -0.2317520000000 1.0   0.01
S      4  0.0196590000000  0.2682480000000  0.0055040000000 1.0   0.01
S      4 -0.1345380000000  0.3939670000000  0.4324830000000 1.0   0.01
S      4  0.3654620000000 -0.0675170000000 -0.1060330000000 1.0   0.01
Fe     5  0.5349520000000  0.2185150000000  0.5238840000000 1.0   3.55
Fe     5  0.0349520000000  0.0238840000000 -0.2814850000000 1.0   3.55
Fe     5  0.3649410000000  0.4438550000000  0.3596040000000 1.0   3.82
Fe     5 -0.1350590000000 -0.1403960000000 -0.0561450000000 1.0   3.82
END
