TITL 4LiFeSO4F-200804-062702-21ec36 0.0442 460.800549 -1.51293871E+004 17.9995 18.1420 32 (P2) n - 1
REM
REM Run started: Tue, 04 Aug 2020 21:51:05 +0100 in /lustre/scratch/uccabz1/launch_tmp/launcher_2020-08-04-16-21-45-976225
REM CASTEP 20.1 from code version af48c487+ pr-geom-scf-spinfix Tue Jun 2 15:39:59 2020 +0100
REM Functional Perdew Burke Ernzerhof Relativity Koelling-Harmon Dispersion off
REM Cut-off 340.0000 eV Grid scale 1.7500 Gmax 16.5316 1/A FBSC none
REM MP grid 3 2 2 Offset 0.000 0.000 0.000 No. kpts 3 Spacing 0.07
REM Total runtime: 19611.2 s
REM Overall efficiency: 77 %
REM
REM
REM
REM compiler GCC version 4.9.2
REM options -cpp -iprefix /lustre/shared/ucl/apps/gcc/4.9.2/bin/../lib/gcc/x86_64-unknown-linux-gnu/4.9.2/ -mtune=corei7 -march=x86-64 -g -Og
REM COMMAND_LINE
REM seed 163298861 611327067 -982480922 -504380952 -211458085 -492981981 1716574869 -893143218 -60362443 1973818010 -1328167443 -670380030
REM
REM S 3|1.8|5|6|7|30:31:32(qc=5)
REM O 2|1.5|12|13|15|20:21(qc=5)
REM Li 1|1.3|8|9|10|10U:20(qc=5)
REM Fe 3|2.2|2.0|1.0|8|9|10|40:41:32(qc=5)
REM F 2|1.6|10|12|13|20:21(qc=5)
REM 
CELL 1.54180    5.48671    7.63540   11.01769   90.00000   86.69780   90.00000
LATT -1
SFAC Li O  F  S  Fe 
Li     1  0.4545600000000  0.3167220000000 -0.3089440000000 1.0  -0.01
Li     1 -0.4545600000000  0.3167220000000  0.3089440000000 1.0  -0.01
Li     1 -0.1527100000000 -0.0410970000000 -0.2593550000000 1.0  -0.01
Li     1  0.1527100000000 -0.0410970000000  0.2593550000000 1.0  -0.01
O      2 -0.3829870000000 -0.4039020000000  0.3009310000000 1.0   0.07
O      2 -0.5835300000000 -0.1762470000000  0.1780860000000 1.0   0.03
O      2 -0.2332270000000 -0.3357070000000  0.0880890000000 1.0   0.13
O      2 -0.1771710000000 -0.1345120000000  0.2611720000000 1.0   0.09
O      2  0.3829870000000 -0.4039020000000 -0.3009310000000 1.0   0.07
O      2  0.5835300000000 -0.1762470000000 -0.1780860000000 1.0   0.03
O      2  0.2332270000000 -0.3357070000000 -0.0880890000000 1.0   0.13
O      2  0.1771710000000 -0.1345120000000 -0.2611720000000 1.0   0.09
O      2 -0.1929380000000  0.2466130000000  0.1920170000000 1.0   0.04
O      2  0.1853930000000  0.3909190000000  0.1141880000000 1.0   0.25
O      2  0.1879380000000  0.2060690000000  0.3050030000000 1.0   0.09
O      2  0.1929380000000  0.2466130000000 -0.1920170000000 1.0   0.04
O      2 -0.1853930000000  0.3909190000000 -0.1141880000000 1.0   0.25
O      2 -0.1879380000000  0.2060690000000 -0.3050030000000 1.0   0.09
O      2  0.0000000000000 -0.0582950000000  0.5000000000000 1.0   0.49
O      2  0.5000000000000 -0.1818480000000 -0.5000000000000 1.0   0.44
F      3 -0.2771180000000  0.2884990000000  0.4469240000000 1.0   0.19
F      3  0.2771180000000  0.2884990000000 -0.4469240000000 1.0   0.19
F      3 -0.1152620000000 -0.3591300000000 -0.4005050000000 1.0   0.15
F      3  0.1152620000000 -0.3591300000000  0.4005050000000 1.0   0.15
S      4 -0.3525220000000 -0.2616390000000  0.2044700000000 1.0   0.01
S      4  0.3525220000000 -0.2616390000000 -0.2044700000000 1.0   0.01
S      4  0.0237030000000  0.3455240000000  0.2370110000000 1.0   0.02
S      4 -0.0237030000000  0.3455240000000 -0.2370110000000 1.0   0.02
Fe     5  0.2080830000000 -0.2500070000000 -0.4404460000000 1.0   3.48
Fe     5 -0.2080830000000 -0.2500070000000  0.4404460000000 1.0   3.48
Fe     5  0.0000000000000 -0.4890830000000  0.0000000000000 1.0   3.96
Fe     5  0.0000000000000  0.1841920000000  0.5000000000000 1.0   4.02
END
