TITL 4LiFeSO4F-200818-021219-654e9a 0.0686 528.958458 -1.51308702E+004 16.0000 16.3387 32 (Pc) n - 1
REM
REM Run started: Tue, 18 Aug 2020 15:10:00 +0100 in /lustre/scratch/uccabz1/launch_tmp/launcher_2020-08-18-05-20-32-086746
REM CASTEP 20.1 from code version af48c487+ pr-geom-scf-spinfix Tue Jun 2 15:39:59 2020 +0100
REM Functional Perdew Burke Ernzerhof Relativity Koelling-Harmon Dispersion off
REM Cut-off 340.0000 eV Grid scale 1.7500 Gmax 16.5316 1/A FBSC none
REM MP grid 3 3 1 Offset 0.000 0.000 0.000 No. kpts 4 Spacing 0.07
REM Total runtime: 36075.7 s
REM Overall efficiency: 75.3 %
REM
REM
REM
REM compiler GCC version 4.9.2
REM options -cpp -iprefix /lustre/shared/ucl/apps/gcc/4.9.2/bin/../lib/gcc/x86_64-unknown-linux-gnu/4.9.2/ -mtune=corei7 -march=x86-64 -g -Og
REM COMMAND_LINE
REM seed -1914147864 931095951 -1223746184 -985684089 994319547 1776725131 -1585192259 -1566689717 -1862426364 1255332407 -1090185061 1815983078
REM
REM S 3|1.8|5|6|7|30:31:32(qc=5)
REM O 2|1.5|12|13|15|20:21(qc=5)
REM Li 1|1.3|8|9|10|10U:20(qc=5)
REM Fe 3|2.2|2.0|1.0|8|9|10|40:41:32(qc=5)
REM F 2|1.6|10|12|13|20:21(qc=5)
REM 
CELL 1.54180    5.98954    5.77249   15.30229   91.17513   90.00000   90.00000
LATT -1
SFAC Li O  F  S  Fe 
Li     1  0.2917850000000 -0.1140950000000  0.1822450000000 1.0  -0.02
Li     1 -0.2917850000000 -0.1140950000000 -0.3177550000000 1.0  -0.02
Li     1 -0.3746050000000  0.1386740000000 -0.1273050000000 1.0  -0.03
Li     1  0.3746050000000  0.1386740000000  0.3726950000000 1.0  -0.03
O      2  0.1818480000000 -0.1429440000000 -0.5362480000000 1.0   0.07
O      2 -0.1419910000000 -0.3930120000000 -0.5195410000000 1.0   0.08
O      2 -0.1930580000000  0.0317330000000 -0.5238860000000 1.0   0.05
O      2 -0.0196550000000 -0.1432790000000 -0.3943780000000 1.0   0.01
O      2 -0.1818480000000 -0.1429440000000 -0.0362480000000 1.0   0.07
O      2  0.1419910000000 -0.3930120000000 -0.0195410000000 1.0   0.08
O      2  0.1930580000000  0.0317330000000 -0.0238860000000 1.0   0.05
O      2  0.0196550000000 -0.1432790000000  0.1056220000000 1.0   0.01
O      2  0.4450720000000  0.5917010000000  0.1465510000000 1.0   0.04
O      2  0.3615180000000  0.3885500000000  0.2849110000000 1.0   0.06
O      2  0.7357540000000  0.3465380000000  0.2187040000000 1.0   0.02
O      2  0.3990320000000  0.1819040000000  0.1435840000000 1.0   0.08
O      2 -0.4450720000000  0.5917010000000 -0.3534490000000 1.0   0.04
O      2 -0.3615180000000  0.3885500000000 -0.2150890000000 1.0   0.06
O      2 -0.7357540000000  0.3465380000000 -0.2812960000000 1.0   0.02
O      2 -0.3990320000000  0.1819040000000 -0.3564160000000 1.0   0.08
F      3 -0.3611100000000 -0.1157940000000 -0.1978440000000 1.0   0.08
F      3  0.3611100000000 -0.1157940000000  0.3021560000000 1.0   0.08
F      3 -0.5758400000000  0.3700690000000  0.4581510000000 1.0   0.10
F      3  0.5758400000000  0.3700690000000 -0.0418490000000 1.0   0.10
S      4 -0.0438080000000 -0.1590900000000 -0.4901170000000 1.0   0.02
S      4  0.0438080000000 -0.1590900000000  0.0098830000000 1.0   0.02
S      4  0.5004150000000  0.3827770000000  0.1998160000000 1.0   0.01
S      4 -0.5004150000000  0.3827770000000 -0.3001840000000 1.0   0.01
Fe     5 -0.2905540000000  0.3447090000000  0.5362960000000 1.0   3.76
Fe     5  0.2905540000000  0.3447090000000  0.0362960000000 1.0   3.76
Fe     5 -0.3301040000000 -0.3720260000000 -0.1179330000000 1.0   3.67
Fe     5  0.3301040000000 -0.3720260000000  0.3820670000000 1.0   3.67
END
