TITL 4LiFeSO4F-200804-065247-b8254f 0.0368 400.368871 -1.51303785E+004 15.9956 16.1599 32 (P-4) n - 1
REM
REM Run started: Tue, 04 Aug 2020 07:35:00 +0100 in /lustre/scratch/uccabz1/launch_tmp/launcher_2020-08-04-05-52-37-145884
REM CASTEP 20.1 from code version af48c487+ pr-geom-scf-spinfix Tue Jun 2 15:39:59 2020 +0100
REM Functional Perdew Burke Ernzerhof Relativity Koelling-Harmon Dispersion off
REM Cut-off 340.0000 eV Grid scale 1.7500 Gmax 16.5316 1/A FBSC none
REM MP grid 3 2 2 Offset 0.000 0.000 0.000 No. kpts 2 Spacing 0.07
REM Total runtime: 2570.29 s
REM Overall efficiency: 71.7143 %
REM
REM 4LiFeSO4F.cell (79c870615ff1d88195b1fe3fe805288c)
REM
REM compiler GCC version 4.9.2
REM options -cpp -iprefix /lustre/shared/ucl/apps/gcc/4.9.2/bin/../lib/gcc/x86_64-unknown-linux-gnu/4.9.2/ -mtune=corei7 -march=x86-64 -g -Og
REM COMMAND_LINE
REM seed -1529248640 -468243761 -1120113916 102367518 334617329 -1288090478 -693542627 -791415411 -586147471 620128177 1872924842 -1122299892
REM
REM S 3|1.8|5|6|7|30:31:32(qc=5)
REM O 2|1.5|12|13|15|20:21(qc=5)
REM Li 1|1.3|8|9|10|10U:20(qc=5)
REM Fe 3|2.2|2.0|1.0|8|9|10|40:41:32(qc=5)
REM F 2|1.6|10|12|13|20:21(qc=5)
REM 
CELL 1.54180    5.35935    8.64319    8.64319   90.00000   90.00000   90.00000
LATT -1
SFAC Li O  F  S  Fe 
Li     1 -0.2486620000000 -0.2825390000000  0.4495980000000 1.0  -0.01
Li     1 -0.2486620000000  0.2825390000000 -0.4495980000000 1.0  -0.01
Li     1  0.2486620000000 -0.4495980000000 -0.2825390000000 1.0  -0.01
Li     1  0.2486620000000  0.4495980000000  0.2825390000000 1.0  -0.01
O      2  0.4771360000000 -0.1338840000000  0.3889790000000 1.0   0.05
O      2  0.0074950000000 -0.1284140000000  0.3679110000000 1.0   0.02
O      2  0.2278840000000 -0.3402890000000  0.4990380000000 1.0   0.02
O      2  0.2560260000000 -0.3168200000000  0.2185560000000 1.0   0.05
O      2  0.4771360000000  0.1338840000000 -0.3889790000000 1.0   0.05
O      2  0.0074950000000  0.1284140000000 -0.3679110000000 1.0   0.02
O      2  0.2278840000000  0.3402890000000 -0.4990380000000 1.0   0.02
O      2  0.2560260000000  0.3168200000000 -0.2185560000000 1.0   0.05
O      2 -0.4771360000000 -0.3889790000000 -0.1338840000000 1.0   0.05
O      2 -0.0074950000000 -0.3679110000000 -0.1284140000000 1.0   0.02
O      2 -0.2278840000000 -0.4990380000000 -0.3402890000000 1.0   0.02
O      2 -0.2560260000000 -0.2185560000000 -0.3168200000000 1.0   0.05
O      2 -0.4771360000000  0.3889790000000  0.1338840000000 1.0   0.05
O      2 -0.0074950000000  0.3679110000000  0.1284140000000 1.0   0.02
O      2 -0.2278840000000  0.4990380000000  0.3402890000000 1.0   0.02
O      2 -0.2560260000000  0.2185560000000  0.3168200000000 1.0   0.05
F      3 -0.3140040000000  0.1477530000000 -0.0789800000000 1.0   0.14
F      3 -0.3140040000000 -0.1477530000000  0.0789800000000 1.0   0.14
F      3  0.3140040000000  0.0789800000000  0.1477530000000 1.0   0.14
F      3  0.3140040000000 -0.0789800000000 -0.1477530000000 1.0   0.14
S      4  0.2374120000000 -0.2253250000000  0.3714460000000 1.0   0.01
S      4  0.2374120000000  0.2253250000000 -0.3714460000000 1.0   0.01
S      4 -0.2374120000000 -0.3714460000000 -0.2253250000000 1.0   0.01
S      4 -0.2374120000000  0.3714460000000  0.2253250000000 1.0   0.01
Fe     5  0.3307550000000 -0.2364930000000  0.0074890000000 1.0   3.73
Fe     5  0.3307550000000  0.2364930000000 -0.0074890000000 1.0   3.73
Fe     5 -0.3307550000000 -0.0074890000000 -0.2364930000000 1.0   3.73
Fe     5 -0.3307550000000  0.0074890000000  0.2364930000000 1.0   3.73
END
