TITL 4LiFeSO4F-200818-143912-35affa -0.0432 431.251284 -1.51292167E+004 16.0000 16.2262 32 (Cc) n - 1
REM
REM Run started: Tue, 18 Aug 2020 22:09:15 +0100 in /lustre/scratch/uccabz1/launch_tmp/launcher_2020-08-18-13-38-59-994060
REM CASTEP 20.1 from code version af48c487+ pr-geom-scf-spinfix Tue Jun 2 15:39:59 2020 +0100
REM Functional Perdew Burke Ernzerhof Relativity Koelling-Harmon Dispersion off
REM Cut-off 340.0000 eV Grid scale 1.7500 Gmax 16.5316 1/A FBSC none
REM MP grid 3 2 2 Offset 0.000 0.000 0.000 No. kpts 5 Spacing 0.07
REM Total runtime: 30505.8 s
REM Overall efficiency: 76.5833 %
REM
REM 4LiFeSO4F.cell (79c870615ff1d88195b1fe3fe805288c)
REM
REM compiler GCC version 4.9.2
REM options -cpp -iprefix /lustre/shared/ucl/apps/gcc/4.9.2/bin/../lib/gcc/x86_64-unknown-linux-gnu/4.9.2/ -mtune=corei7 -march=x86-64 -g -Og
REM COMMAND_LINE
REM seed 21322452 233892920 -599049149 -289690217 22308854 -354994657 -1731478422 1048722903 1636255806 -815328183 -1532628587 96315943
REM
REM S 3|1.8|5|6|7|30:31:32(qc=5)
REM O 2|1.5|12|13|15|20:21(qc=5)
REM Li 1|1.3|8|9|10|10U:20(qc=5)
REM Fe 3|2.2|2.0|1.0|8|9|10|40:41:32(qc=5)
REM F 2|1.6|10|12|13|20:21(qc=5)
REM 
CELL 1.54180    6.14906    8.55371    8.55371   77.95134   81.13070   81.13070
LATT -1
SFAC Li O  F  S  Fe 
Li     1  0.3460910000000 -0.0075220000000 -0.2597430000000 1.0  -0.01
Li     1 -0.1539090000000 -0.2597430000000 -0.0075220000000 1.0  -0.01
Li     1  0.0984010000000  0.2820010000000 -0.0938670000000 1.0  -0.02
Li     1 -0.4015990000000 -0.0938670000000  0.2820010000000 1.0  -0.02
O      2  0.1368570000000 -0.3819420000000  0.0235080000000 1.0   0.05
O      2  0.2513470000000 -0.5239530000000 -0.2051250000000 1.0   0.07
O      2  0.5371350000000 -0.4743620000000 -0.0728820000000 1.0   0.07
O      2  0.3193110000000 -0.2365500000000 -0.2225920000000 1.0   0.02
O      2 -0.3631430000000  0.0235080000000 -0.3819420000000 1.0   0.05
O      2 -0.2486530000000 -0.2051250000000 -0.5239530000000 1.0   0.07
O      2  0.0371350000000 -0.0728820000000 -0.4743620000000 1.0   0.07
O      2 -0.1806890000000 -0.2225920000000 -0.2365500000000 1.0   0.02
O      2  0.3857640000000 -0.5496770000000  0.2551120000000 1.0   0.06
O      2  0.3770350000000 -0.2637530000000  0.2903960000000 1.0   0.06
O      2  0.7254840000000 -0.4144650000000  0.2105170000000 1.0   0.05
O      2  0.5307890000000 -0.5055240000000  0.4847170000000 1.0   0.04
O      2 -0.1142360000000  0.2551120000000 -0.5496770000000 1.0   0.06
O      2 -0.1229650000000  0.2903960000000 -0.2637530000000 1.0   0.06
O      2  0.2254840000000  0.2105170000000 -0.4144650000000 1.0   0.05
O      2  0.0307890000000  0.4847170000000 -0.5055240000000 1.0   0.04
F      3 -0.1204580000000 -0.1124130000000  0.1443990000000 1.0   0.08
F      3 -0.6204580000000  0.1443990000000 -0.1124130000000 1.0   0.08
F      3  0.5156360000000  0.1133040000000  0.2925790000000 1.0   0.13
F      3  0.0156360000000  0.2925790000000  0.1133040000000 1.0   0.13
S      4  0.3110830000000 -0.3980940000000 -0.1216810000000 1.0   0.01
S      4 -0.1889170000000 -0.1216810000000 -0.3980940000000 1.0   0.01
S      4  0.5048930000000 -0.4352760000000  0.3134580000000 1.0   0.01
S      4  0.0048930000000  0.3134580000000 -0.4352760000000 1.0   0.01
Fe     5  0.0420410000000  0.4493190000000  0.2348440000000 1.0   3.73
Fe     5  0.5420410000000  0.2348440000000  0.4493190000000 1.0   3.73
Fe     5  0.0618380000000 -0.1654490000000  0.3192600000000 1.0   3.65
Fe     5 -0.4381620000000  0.3192600000000 -0.1654490000000 1.0   3.65
END
