TITL 4LiFeSO4F-200818-074517-e438a0 0.1623 491.204620 -1.51306237E+004 16.0000 16.1630 32 (P21) n - 1
REM
REM Run started: Tue, 18 Aug 2020 20:41:39 +0100 in /lustre/scratch/uccabz1/launch_tmp/launcher_2020-08-18-06-45-15-260525
REM CASTEP 20.1 from code version af48c487+ pr-geom-scf-spinfix Tue Jun 2 15:39:59 2020 +0100
REM Functional Perdew Burke Ernzerhof Relativity Koelling-Harmon Dispersion off
REM Cut-off 340.0000 eV Grid scale 1.7500 Gmax 16.5316 1/A FBSC none
REM MP grid 3 3 1 Offset 0.000 0.000 0.000 No. kpts 5 Spacing 0.07
REM Total runtime: 51748.9 s
REM Overall efficiency: 73.6667 %
REM
REM 4LiFeSO4F.cell (79c870615ff1d88195b1fe3fe805288c)
REM
REM compiler GCC version 4.9.2
REM options -cpp -iprefix /lustre/shared/ucl/apps/gcc/4.9.2/bin/../lib/gcc/x86_64-unknown-linux-gnu/4.9.2/ -mtune=corei7 -march=x86-64 -g -Og
REM COMMAND_LINE
REM seed -1082425353 1715907359 -1335811243 -318010206 -524790520 1771724890 -857945744 58387250 1500699920 1647407635 -170043291 -2096322504
REM
REM S 3|1.8|5|6|7|30:31:32(qc=5)
REM O 2|1.5|12|13|15|20:21(qc=5)
REM Li 1|1.3|8|9|10|10U:20(qc=5)
REM Fe 3|2.2|2.0|1.0|8|9|10|40:41:32(qc=5)
REM F 2|1.6|10|12|13|20:21(qc=5)
REM 
CELL 1.54180    4.83932    6.64969   15.32540   90.00000   90.00000   95.11883
LATT -1
SFAC Li O  F  S  Fe 
Li     1 -0.2105930000000  0.0432730000000 -0.1695960000000 1.0  -0.01
Li     1  0.2105930000000 -0.0432730000000  0.3304040000000 1.0  -0.01
Li     1 -0.1160690000000 -0.4345440000000 -0.1285460000000 1.0  -0.01
Li     1  0.1160690000000  0.4345440000000  0.3714540000000 1.0  -0.01
O      2 -0.4865330000000 -0.1821320000000  0.4145800000000 1.0   0.02
O      2 -0.5111380000000 -0.4735840000000  0.3140310000000 1.0   0.05
O      2 -0.0678270000000 -0.2748040000000  0.3317080000000 1.0   0.01
O      2 -0.4559720000000 -0.1175460000000  0.2611120000000 1.0   0.06
O      2  0.4865330000000  0.1821320000000 -0.0854200000000 1.0   0.02
O      2  0.5111380000000  0.4735840000000 -0.1859690000000 1.0   0.05
O      2  0.0678270000000  0.2748040000000 -0.1682920000000 1.0   0.01
O      2  0.4559720000000  0.1175460000000 -0.2388880000000 1.0   0.06
O      2 -0.2098040000000 -0.5661940000000  0.1370000000000 1.0   0.04
O      2 -0.1289110000000 -0.1994140000000  0.0993050000000 1.0   0.09
O      2 -0.0234330000000 -0.4543150000000 -0.0082900000000 1.0   0.02
O      2  0.2576290000000 -0.3993070000000  0.1251540000000 1.0   0.09
O      2  0.2098040000000  0.5661940000000 -0.3630000000000 1.0   0.04
O      2  0.1289110000000  0.1994140000000 -0.4006950000000 1.0   0.09
O      2  0.0234330000000  0.4543150000000 -0.5082900000000 1.0   0.02
O      2 -0.2576290000000  0.3993070000000 -0.3748460000000 1.0   0.09
F      3  0.3356320000000  0.1241950000000  0.1242570000000 1.0   0.14
F      3 -0.3356320000000 -0.1241950000000 -0.3757430000000 1.0   0.14
F      3 -0.1552770000000 -0.2136670000000 -0.2010330000000 1.0   0.06
F      3  0.1552770000000  0.2136670000000  0.2989670000000 1.0   0.06
S      4 -0.3741820000000 -0.2613100000000  0.3332670000000 1.0   0.01
S      4  0.3741820000000  0.2613100000000 -0.1667330000000 1.0   0.01
S      4 -0.0387790000000 -0.4115100000000  0.0854150000000 1.0   0.01
S      4  0.0387790000000  0.4115100000000 -0.4145850000000 1.0   0.01
Fe     5  0.4920780000000  0.1255540000000 -0.3701720000000 1.0   3.70
Fe     5 -0.4920780000000 -0.1255540000000  0.1298280000000 1.0   3.70
Fe     5 -0.3898530000000 -0.3622870000000 -0.2984360000000 1.0   3.73
Fe     5  0.3898530000000  0.3622870000000  0.2015640000000 1.0   3.73
END
