TITL 4LiFeSO4F-200818-000314-784041 0.0825 416.097923 -1.51296211E+004 16.0000 16.3197 32 (C2) n - 1
REM
REM Run started: Wed, 19 Aug 2020 03:15:56 +0100 in /lustre/scratch/uccabz1/launch_tmp/launcher_2020-08-17-23-03-09-537773
REM CASTEP 20.1 from code version af48c487+ pr-geom-scf-spinfix Tue Jun 2 15:39:59 2020 +0100
REM Functional Perdew Burke Ernzerhof Relativity Koelling-Harmon Dispersion off
REM Cut-off 340.0000 eV Grid scale 1.7500 Gmax 16.5316 1/A FBSC none
REM MP grid 3 3 2 Offset 0.000 0.000 0.000 No. kpts 9 Spacing 0.07
REM Total runtime: 105301 s
REM Overall efficiency: 97.9167 %
REM
REM 4LiFeSO4F.cell (79c870615ff1d88195b1fe3fe805288c)
REM
REM compiler GCC version 4.9.2
REM options -cpp -iprefix /lustre/shared/ucl/apps/gcc/4.9.2/bin/../lib/gcc/x86_64-unknown-linux-gnu/4.9.2/ -mtune=corei7 -march=x86-64 -g -Og
REM COMMAND_LINE
REM seed -1614505766 950968598 -470723420 -1300173548 1652951682 -574978353 -1784443528 1234911141 -627146372 -1583230367 -2021500785 136271173
REM
REM S 3|1.8|5|6|7|30:31:32(qc=5)
REM O 2|1.5|12|13|15|20:21(qc=5)
REM Li 1|1.3|8|9|10|10U:20(qc=5)
REM Fe 3|2.2|2.0|1.0|8|9|10|40:41:32(qc=5)
REM F 2|1.6|10|12|13|20:21(qc=5)
REM 
CELL 1.54180    6.14601    5.85095   14.31571   72.16381   77.60445   58.31732
LATT -1
SFAC Li O  F  S  Fe 
Li     1 -0.0184660000000 -0.4452320000000 -0.3138880000000 1.0  -0.05
Li     1  0.2224140000000  0.4452320000000  0.3138880000000 1.0  -0.05
Li     1  0.4129190000000 -0.2773130000000  0.1007630000000 1.0  -0.01
Li     1  0.2363680000000  0.2773130000000 -0.1007630000000 1.0  -0.01
O      2 -0.1077410000000 -0.4923960000000 -0.1440480000000 1.0   0.01
O      2 -0.5405380000000 -0.0718370000000 -0.1418330000000 1.0   0.01
O      2 -0.1522410000000 -0.0649460000000 -0.1294340000000 1.0   0.14
O      2 -0.3038900000000 -0.3316710000000  0.0086360000000 1.0   0.01
O      2  0.2558150000000  0.4923960000000  0.1440480000000 1.0   0.01
O      2  0.2457920000000  0.0718370000000  0.1418330000000 1.0   0.01
O      2  0.6533780000000  0.0649460000000  0.1294340000000 1.0   0.14
O      2  0.3730740000000  0.3316710000000 -0.0086360000000 1.0   0.01
O      2  0.6009480000000 -0.7621690000000 -0.3562770000000 1.0   0.07
O      2  0.4500070000000 -0.2655090000000 -0.4394250000000 1.0   0.06
O      2  0.6876630000000 -0.4921760000000 -0.2892400000000 1.0   0.04
O      2  0.2413130000000 -0.3867410000000 -0.2810880000000 1.0   0.03
O      2 -0.5174990000000  0.7621690000000  0.3562770000000 1.0   0.07
O      2 -0.2549280000000  0.2655090000000  0.4394250000000 1.0   0.06
O      2 -0.0937530000000  0.4921760000000  0.2892400000000 1.0   0.04
O      2 -0.4265170000000  0.3867410000000  0.2810880000000 1.0   0.03
F      3  0.1822760000000  0.1850780000000 -0.3496730000000 1.0   0.09
F      3  0.0176820000000 -0.1850780000000  0.3496730000000 1.0   0.09
F      3 -0.0808500000000 -0.1977440000000 -0.4410250000000 1.0   0.09
F      3  0.2803820000000  0.1977440000000  0.4410250000000 1.0   0.09
S      4 -0.2836010000000 -0.2477670000000 -0.0998940000000 1.0   0.00
S      4  0.3687390000000  0.2477670000000  0.0998940000000 1.0   0.00
S      4  0.4929510000000 -0.4745220000000 -0.3417430000000 1.0   0.01
S      4 -0.3233150000000  0.4745220000000  0.3417430000000 1.0   0.01
Fe     5 -0.2344370000000 -0.0416240000000  0.2541740000000 1.0   3.73
Fe     5 -0.0218870000000  0.0416240000000 -0.2541740000000 1.0   3.73
Fe     5  0.5161070000000  0.0846110000000 -0.4502610000000 1.0   3.75
Fe     5  0.1504570000000 -0.0846110000000  0.4502610000000 1.0   3.75
END
