TITL 4LiFeSO4F-200804-070020-bdd534 -0.0068 586.663662 -1.51280460E+004 15.9999 16.2259 32 (Pm) n - 1
REM
REM Run started: Tue, 04 Aug 2020 18:02:50 +0100 in /lustre/scratch/uccabz1/launch_tmp/launcher_2020-08-04-06-00-16-050321
REM CASTEP 20.1 from code version af48c487+ pr-geom-scf-spinfix Tue Jun 2 15:39:59 2020 +0100
REM Functional Perdew Burke Ernzerhof Relativity Koelling-Harmon Dispersion off
REM Cut-off 340.0000 eV Grid scale 1.7500 Gmax 16.5316 1/A FBSC none
REM MP grid 4 2 1 Offset 0.000 0.000 0.000 No. kpts 4 Spacing 0.07
REM Total runtime: 39939.1 s
REM Overall efficiency: 72.9091 %
REM
REM 4LiFeSO4F.cell (79c870615ff1d88195b1fe3fe805288c)
REM
REM compiler GCC version 4.9.2
REM options -cpp -iprefix /lustre/shared/ucl/apps/gcc/4.9.2/bin/../lib/gcc/x86_64-unknown-linux-gnu/4.9.2/ -mtune=corei7 -march=x86-64 -g -Og
REM COMMAND_LINE
REM seed 808492980 621063928 -1698408765 -342545770 -604718071 -119888656 1677848444 588883534 1041878508 -474039866 583294941 -119086030
REM
REM S 3|1.8|5|6|7|30:31:32(qc=5)
REM O 2|1.5|12|13|15|20:21(qc=5)
REM Li 1|1.3|8|9|10|10U:20(qc=5)
REM Fe 3|2.2|2.0|1.0|8|9|10|40:41:32(qc=5)
REM F 2|1.6|10|12|13|20:21(qc=5)
REM 
CELL 1.54180    3.87350    9.54203   15.87984   90.00000   90.00000   91.74107
LATT -1
SFAC Li O  F  S  Fe 
Li     1  0.3829240000000  0.3254730000000 -0.1443470000000 1.0  -0.01
Li     1  0.3829240000000  0.3254730000000  0.1443470000000 1.0  -0.01
Li     1  0.2961740000000 -0.1618840000000 -0.1518690000000 1.0  -0.01
Li     1  0.2961740000000 -0.1618840000000  0.1518690000000 1.0  -0.01
O      2  0.0069740000000 -0.3234310000000 -0.1324350000000 1.0   0.01
O      2 -0.4303010000000 -0.5000450000000 -0.1709390000000 1.0   0.01
O      2 -0.0123810000000 -0.4275050000000 -0.2792290000000 1.0   0.08
O      2 -0.4224680000000 -0.2574630000000 -0.2340490000000 1.0   0.06
O      2  0.0069740000000 -0.3234310000000  0.1324350000000 1.0   0.01
O      2 -0.4303010000000 -0.5000450000000  0.1709390000000 1.0   0.01
O      2 -0.0123810000000 -0.4275050000000  0.2792290000000 1.0   0.08
O      2 -0.4224680000000 -0.2574630000000  0.2340490000000 1.0   0.06
O      2 -0.3435410000000  0.0672410000000 -0.2780060000000 1.0   0.07
O      2  0.0809440000000  0.2403530000000 -0.2287590000000 1.0   0.06
O      2  0.0622510000000 -0.0039810000000 -0.1694150000000 1.0   0.01
O      2 -0.3577440000000  0.1660420000000 -0.1295170000000 1.0   0.01
O      2 -0.3435410000000  0.0672410000000  0.2780060000000 1.0   0.07
O      2  0.0809440000000  0.2403530000000  0.2287590000000 1.0   0.06
O      2  0.0622510000000 -0.0039810000000  0.1694150000000 1.0   0.01
O      2 -0.3577440000000  0.1660420000000  0.1295170000000 1.0   0.01
F      3  0.1458510000000 -0.1291330000000  0.3665510000000 1.0   0.11
F      3  0.1458510000000 -0.1291330000000 -0.3665510000000 1.0   0.11
F      3  0.5088970000000  0.3688540000000 -0.3585770000000 1.0   0.12
F      3  0.5088970000000  0.3688540000000  0.3585770000000 1.0   0.12
S      4 -0.2109230000000 -0.3808890000000 -0.2018250000000 1.0   0.01
S      4 -0.2109230000000 -0.3808890000000  0.2018250000000 1.0   0.01
S      4 -0.1441490000000  0.1132330000000 -0.1998380000000 1.0   0.01
S      4 -0.1441490000000  0.1132330000000  0.1998380000000 1.0   0.01
Fe     5  0.0114880000000  0.3784530000000 -0.3225520000000 1.0   3.73
Fe     5  0.0114880000000  0.3784530000000  0.3225520000000 1.0   3.73
Fe     5 -0.3524140000000 -0.1243360000000 -0.3324690000000 1.0   3.72
Fe     5 -0.3524140000000 -0.1243360000000  0.3324690000000 1.0   3.72
END
