TITL 4LiFeSO4F-200804-074132-685c62 -0.0115 491.224554 -1.51276545E+004 16.0000 16.3029 32 (Pm) n - 1
REM
REM Run started: Tue, 04 Aug 2020 15:32:22 +0100 in /lustre/scratch/uccabz1/launch_tmp/launcher_2020-08-04-06-41-23-951289
REM CASTEP 20.1 from code version af48c487+ pr-geom-scf-spinfix Tue Jun 2 15:39:59 2020 +0100
REM Functional Perdew Burke Ernzerhof Relativity Koelling-Harmon Dispersion off
REM Cut-off 340.0000 eV Grid scale 1.7500 Gmax 16.5316 1/A FBSC none
REM MP grid 3 2 2 Offset 0.000 0.000 0.000 No. kpts 3 Spacing 0.07
REM Total runtime: 28733.8 s
REM Overall efficiency: 73 %
REM
REM 4LiFeSO4F.cell (79c870615ff1d88195b1fe3fe805288c)
REM
REM compiler GCC version 4.9.2
REM options -cpp -iprefix /lustre/shared/ucl/apps/gcc/4.9.2/bin/../lib/gcc/x86_64-unknown-linux-gnu/4.9.2/ -mtune=corei7 -march=x86-64 -g -Og
REM COMMAND_LINE
REM seed 568569576 -925250078 -1977287436 1382746223 67127730 411070485 -1916586325 740363993 905805153 664915310 -918314023 -1939490125
REM
REM S 3|1.8|5|6|7|30:31:32(qc=5)
REM O 2|1.5|12|13|15|20:21(qc=5)
REM Li 1|1.3|8|9|10|10U:20(qc=5)
REM Fe 3|2.2|2.0|1.0|8|9|10|40:41:32(qc=5)
REM F 2|1.6|10|12|13|20:21(qc=5)
REM 
CELL 1.54180    7.52505    8.76216    9.10049   90.00000   90.00000  125.05074
LATT -1
SFAC Li O  F  S  Fe 
Li     1  0.3747750000000 -0.1033890000000 -0.5000000000000 1.0  -0.01
Li     1  0.0029910000000  0.3769490000000  0.5000000000000 1.0   0.01
Li     1  0.4352760000000  0.5466460000000  0.5000000000000 1.0  -0.03
Li     1 -0.1016890000000 -0.2506800000000  0.5000000000000 1.0   0.01
O      2 -0.0972850000000 -0.2740720000000  0.1432400000000 1.0   0.11
O      2 -0.3357280000000 -0.3452040000000  0.3544330000000 1.0   0.02
O      2 -0.2820910000000 -0.1143760000000  0.1670860000000 1.0   0.04
O      2  0.0075110000000 -0.0498760000000  0.3425030000000 1.0   0.16
O      2 -0.0972850000000 -0.2740720000000 -0.1432400000000 1.0   0.11
O      2 -0.3357280000000 -0.3452040000000 -0.3544330000000 1.0   0.02
O      2 -0.2820910000000 -0.1143760000000 -0.1670860000000 1.0   0.04
O      2  0.0075110000000 -0.0498760000000 -0.3425030000000 1.0   0.16
O      2 -0.5153400000000  0.1116920000000  0.3563760000000 1.0   0.10
O      2 -0.1560200000000  0.3892250000000  0.2866170000000 1.0   0.05
O      2 -0.5057130000000  0.2947200000000  0.1632310000000 1.0   0.17
O      2 -0.5153400000000  0.1116920000000 -0.3563760000000 1.0   0.10
O      2 -0.1560200000000  0.3892250000000 -0.2866170000000 1.0   0.05
O      2 -0.5057130000000  0.2947200000000 -0.1632310000000 1.0   0.17
O      2 -0.0752690000000  0.4284440000000  0.0000000000000 1.0   0.24
O      2  0.2320380000000 -0.2676630000000  0.0000000000000 1.0   0.37
F      3  0.2054150000000 -0.2947270000000 -0.3325320000000 1.0   0.07
F      3  0.2054150000000 -0.2947270000000  0.3325320000000 1.0   0.07
F      3  0.2077090000000  0.3607260000000  0.3633840000000 1.0   0.12
F      3  0.2077090000000  0.3607260000000 -0.3633840000000 1.0   0.12
S      4 -0.1905940000000 -0.2009340000000  0.2415390000000 1.0   0.00
S      4 -0.1905940000000 -0.2009340000000 -0.2415390000000 1.0   0.00
S      4 -0.3734020000000  0.2162370000000  0.2151050000000 1.0   0.03
S      4 -0.3734020000000  0.2162370000000 -0.2151050000000 1.0   0.03
Fe     5  0.0546420000000 -0.4089410000000  0.1501920000000 1.0   2.99
Fe     5  0.0546420000000 -0.4089410000000 -0.1501920000000 1.0   2.99
Fe     5  0.2713840000000  0.1852480000000  0.3149100000000 1.0   3.83
Fe     5  0.2713840000000  0.1852480000000 -0.3149100000000 1.0   3.83
END
