TITL 4LiFeSO4F-200818-031652-8bbb45 0.0304 462.973019 -1.51307114E+004 -15.9999 16.2205 32 (P2) n - 1
REM
REM Run started: Tue, 18 Aug 2020 14:13:18 +0100 in /scratch/scratch/uccabz1/launch_tmp/launcher_2020-08-18-02-16-46-801473
REM CASTEP 19.11| from code version Version unavailable
REM Functional Perdew Burke Ernzerhof Relativity Koelling-Harmon Dispersion off
REM Cut-off 340.0000 eV Grid scale 1.7500 Gmax 16.5316 1/A FBSC none
REM MP grid 3 2 2 Offset 0.000 0.000 0.000 No. kpts 4 Spacing 0.07
REM Total runtime: 39505.8 s
REM Overall efficiency: 74.1667 %
REM
REM 4LiFeSO4F.cell (79c870615ff1d88195b1fe3fe805288c)
REM
REM compiler GCC version 4.9.2
REM options -cpp -iprefix /scratch/UCL/applications/gcc/4.9.2/bin/../lib/gcc/x86_64-unknown-linux-gnu/4.9.2/ -mtune=corei7 -march=x86-64 -g -O2
REM COMMAND_LINE
REM seed -2012446554 -1705754914 -1573143900 845385836 350634201 1209069832 1407873399 1286234855 -1139949658 2077652434 336880627 -1573549873
REM
REM S 3|1.8|5|6|7|30:31:32(qc=5)
REM O 2|1.5|12|13|15|20:21(qc=5)
REM Li 1|1.3|8|9|10|10U:20(qc=5)
REM Fe 3|2.2|2.0|1.0|8|9|10|40:41:32(qc=5)
REM F 2|1.6|10|12|13|20:21(qc=5)
REM 
CELL 1.54180    6.24963    9.07652    8.16991   92.56425   90.00000   90.00000
LATT -1
SFAC Li O  F  S  Fe 
Li     1  0.0433790000000 -0.0333050000000  0.2650560000000 1.0   0.01
Li     1  0.0433790000000  0.0333050000000 -0.2650560000000 1.0   0.01
Li     1 -0.4863590000000  0.0728580000000 -0.1781690000000 1.0   0.01
Li     1 -0.4863590000000 -0.0728580000000  0.1781690000000 1.0   0.01
O      2 -0.0521070000000  0.3920200000000 -0.3364450000000 1.0  -0.07
O      2 -0.4269660000000  0.3815540000000 -0.3357100000000 1.0  -0.07
O      2 -0.2252160000000  0.1462140000000 -0.3240900000000 1.0  -0.01
O      2 -0.2341220000000  0.2763830000000 -0.5808390000000 1.0  -0.03
O      2 -0.0521070000000 -0.3920200000000  0.3364450000000 1.0  -0.07
O      2 -0.4269660000000 -0.3815540000000  0.3357100000000 1.0  -0.07
O      2 -0.2252160000000 -0.1462140000000  0.3240900000000 1.0  -0.01
O      2 -0.2341220000000 -0.2763830000000  0.5808390000000 1.0  -0.03
O      2  0.2438240000000  0.1282250000000  0.2792580000000 1.0  -0.01
O      2  0.0630220000000  0.3219310000000  0.1289030000000 1.0  -0.06
O      2  0.4557830000000  0.3106410000000  0.1326450000000 1.0  -0.05
O      2  0.2618560000000  0.3891000000000  0.3816440000000 1.0  -0.08
O      2  0.2438240000000 -0.1282250000000 -0.2792580000000 1.0  -0.01
O      2  0.0630220000000 -0.3219310000000 -0.1289030000000 1.0  -0.06
O      2  0.4557830000000 -0.3106410000000 -0.1326450000000 1.0  -0.05
O      2  0.2618560000000 -0.3891000000000 -0.3816440000000 1.0  -0.08
F      3  0.2664710000000 -0.1650690000000  0.2670210000000 1.0  -0.05
F      3  0.2664710000000  0.1650690000000 -0.2670210000000 1.0  -0.05
F      3 -0.2504160000000 -0.5000000000000  0.0000000000000 1.0  -0.15
F      3 -0.3756360000000  0.0000000000000  0.0000000000000 1.0  -0.00
S      4 -0.2350760000000  0.2938950000000 -0.3979990000000 1.0  -0.02
S      4 -0.2350760000000 -0.2938950000000  0.3979990000000 1.0  -0.02
S      4  0.2561630000000  0.2835420000000  0.2281740000000 1.0  -0.02
S      4  0.2561630000000 -0.2835420000000 -0.2281740000000 1.0  -0.02
Fe     5 -0.2408520000000  0.3895740000000  0.1985770000000 1.0  -3.75
Fe     5 -0.2408520000000 -0.3895740000000 -0.1985770000000 1.0  -3.75
Fe     5  0.2591450000000  0.3650750000000 -0.3703210000000 1.0  -3.73
Fe     5  0.2591450000000 -0.3650750000000  0.3703210000000 1.0  -3.73
END
