TITL 4LiFeSO4F-200804-064907-422b6d 0.0047 467.189131 -1.51290504E+004 17.9927 18.9407 32 (C2) n - 1
REM
REM Run started: Tue, 04 Aug 2020 14:55:31 +0100 in /lustre/scratch/uccabz1/launch_tmp/launcher_2020-08-04-05-48-55-593910
REM CASTEP 20.1 from code version af48c487+ pr-geom-scf-spinfix Tue Jun 2 15:39:59 2020 +0100
REM Functional Perdew Burke Ernzerhof Relativity Koelling-Harmon Dispersion off
REM Cut-off 340.0000 eV Grid scale 1.7500 Gmax 16.5316 1/A FBSC none
REM MP grid 3 2 2 Offset 0.000 0.000 0.000 No. kpts 5 Spacing 0.07
REM Total runtime: 29335.9 s
REM Overall efficiency: 73.0909 %
REM
REM 4LiFeSO4F.cell (79c870615ff1d88195b1fe3fe805288c)
REM
REM compiler GCC version 4.9.2
REM options -cpp -iprefix /lustre/shared/ucl/apps/gcc/4.9.2/bin/../lib/gcc/x86_64-unknown-linux-gnu/4.9.2/ -mtune=corei7 -march=x86-64 -g -Og
REM COMMAND_LINE
REM seed -1099063016 1658786561 -376358257 36509056 1799226005 1512626699 -260800272 1908570191 79681643 -1337479541 709575322 -2039268828
REM
REM S 3|1.8|5|6|7|30:31:32(qc=5)
REM O 2|1.5|12|13|15|20:21(qc=5)
REM Li 1|1.3|8|9|10|10U:20(qc=5)
REM Fe 3|2.2|2.0|1.0|8|9|10|40:41:32(qc=5)
REM F 2|1.6|10|12|13|20:21(qc=5)
REM 
CELL 1.54180    6.29008    9.51707    9.51707  120.83845   98.41401   98.41401
LATT -1
SFAC Li O  F  S  Fe 
Li     1  0.5000000000000  0.3131300000000 -0.3131300000000 1.0  -0.05
Li     1  0.0000000000000 -0.2523350000000  0.2523350000000 1.0  -0.03
Li     1  0.5000000000000 -0.3266920000000  0.3266920000000 1.0  -0.01
Li     1  0.0000000000000 -0.4373850000000  0.4373850000000 1.0   0.00
O      2 -0.6660790000000  0.2269800000000  0.2352260000000 1.0   0.11
O      2 -0.3134570000000  0.4496510000000  0.4162640000000 1.0   0.01
O      2 -0.5270100000000  0.4399710000000  0.1725610000000 1.0   0.12
O      2 -0.3377390000000  0.2229860000000  0.1185310000000 1.0   0.06
O      2  0.6660790000000 -0.2352260000000 -0.2269800000000 1.0   0.11
O      2  0.3134570000000 -0.4162640000000 -0.4496510000000 1.0   0.01
O      2  0.5270100000000 -0.1725610000000 -0.4399710000000 1.0   0.12
O      2  0.3377390000000 -0.1185310000000 -0.2229860000000 1.0   0.06
O      2 -0.2068620000000  0.2618690000000  0.6461930000000 1.0   0.02
O      2 -0.7004110000000  0.0616410000000  0.4609410000000 1.0   0.62
O      2 -0.2977250000000 -0.1657060000000  0.2767780000000 1.0  -0.08
O      2  0.0054670000000  0.2818810000000  0.4575460000000 1.0   0.15
O      2  0.2068620000000 -0.6461930000000 -0.2618690000000 1.0   0.02
O      2  0.7004110000000 -0.4609410000000 -0.0616410000000 1.0   0.62
O      2  0.2977250000000 -0.2767780000000  0.1657060000000 1.0  -0.08
O      2 -0.0054670000000 -0.4575460000000 -0.2818810000000 1.0   0.15
F      3  0.0417530000000 -0.1988310000000 -0.5189840000000 1.0   0.13
F      3 -0.0417530000000  0.5189840000000  0.1988310000000 1.0   0.13
F      3  0.0000000000000 -0.1052450000000  0.1052450000000 1.0   0.15
F      3  0.5000000000000  0.1950760000000 -0.1950760000000 1.0   0.15
S      4 -0.4558360000000  0.3320680000000  0.2415240000000 1.0   0.01
S      4  0.4558360000000 -0.2415240000000 -0.3320680000000 1.0   0.01
S      4  0.5000000000000 -0.1680360000000  0.1680360000000 1.0  -0.25
S      4  0.0000000000000  0.3560180000000 -0.3560180000000 1.0   0.00
Fe     5 -0.1601450000000 -0.3217370000000 -0.1178980000000 1.0   3.91
Fe     5  0.1601450000000  0.1178980000000  0.3217370000000 1.0   3.91
Fe     5  0.3106800000000 -0.0192640000000 -0.3936770000000 1.0   3.95
Fe     5 -0.3106800000000  0.3936770000000  0.0192640000000 1.0   3.95
END
