TITL 4LiFeSO4F-200817-231214-6b68f7 0.0398 475.946495 -1.51310169E+004 16.0000 16.3460 32 (Pnc2) n - 1
REM
REM Run started: Tue, 18 Aug 2020 01:17:27 +0100 in /lustre/scratch/uccabz1/launch_tmp/launcher_2020-08-17-22-12-11-906193
REM CASTEP 20.1 from code version af48c487+ pr-geom-scf-spinfix Tue Jun 2 15:39:59 2020 +0100
REM Functional Perdew Burke Ernzerhof Relativity Koelling-Harmon Dispersion off
REM Cut-off 340.0000 eV Grid scale 1.7500 Gmax 16.5316 1/A FBSC none
REM MP grid 3 2 2 Offset 0.000 0.000 0.000 No. kpts 2 Spacing 0.07
REM Total runtime: 8072.7 s
REM Overall efficiency: 75.1 %
REM
REM 4LiFeSO4F.cell (79c870615ff1d88195b1fe3fe805288c)
REM
REM compiler GCC version 4.9.2
REM options -cpp -iprefix /lustre/shared/ucl/apps/gcc/4.9.2/bin/../lib/gcc/x86_64-unknown-linux-gnu/4.9.2/ -mtune=corei7 -march=x86-64 -g -Og
REM COMMAND_LINE
REM seed -56135998 -1375439317 -607453239 -1521661900 916585673 1852369571 1340650083 753829508 225466514 256581600 561338902 1280612979
REM
REM S 3|1.8|5|6|7|30:31:32(qc=5)
REM O 2|1.5|12|13|15|20:21(qc=5)
REM Li 1|1.3|8|9|10|10U:20(qc=5)
REM Fe 3|2.2|2.0|1.0|8|9|10|40:41:32(qc=5)
REM F 2|1.6|10|12|13|20:21(qc=5)
REM 
CELL 1.54180    6.04540    7.65624   10.28294   90.00000   90.00000   90.00000
LATT -1
SFAC Li O  F  S  Fe 
Li     1  0.2984360000000  0.1146670000000 -0.1886840000000 1.0   0.00
Li     1 -0.2984360000000 -0.1146670000000 -0.1886840000000 1.0   0.00
Li     1  0.2015640000000  0.1146670000000  0.3113160000000 1.0   0.00
Li     1 -0.2015640000000 -0.1146670000000  0.3113160000000 1.0   0.00
O      2  0.3191310000000 -0.3557640000000  0.2111050000000 1.0   0.11
O      2  0.1469080000000 -0.1327140000000  0.3495770000000 1.0   0.02
O      2  0.5346790000000 -0.2225930000000  0.3863120000000 1.0   0.02
O      2  0.2253910000000 -0.4226910000000  0.4369330000000 1.0   0.08
O      2 -0.3191310000000  0.3557640000000  0.2111050000000 1.0   0.11
O      2 -0.1469080000000  0.1327140000000  0.3495770000000 1.0   0.02
O      2 -0.5346790000000  0.2225930000000  0.3863120000000 1.0   0.02
O      2 -0.2253910000000  0.4226910000000  0.4369330000000 1.0   0.08
O      2  0.1808690000000 -0.3557640000000 -0.2888950000000 1.0   0.11
O      2  0.3530920000000 -0.1327140000000 -0.1504230000000 1.0   0.02
O      2 -0.0346790000000 -0.2225930000000 -0.1136880000000 1.0   0.02
O      2  0.2746090000000 -0.4226910000000 -0.0630670000000 1.0   0.08
O      2 -0.1808690000000  0.3557640000000 -0.2888950000000 1.0   0.11
O      2 -0.3530920000000  0.1327140000000 -0.1504230000000 1.0   0.02
O      2  0.0346790000000  0.2225930000000 -0.1136880000000 1.0   0.02
O      2 -0.2746090000000  0.4226910000000 -0.0630670000000 1.0   0.08
F      3 -0.1824870000000 -0.2418880000000  0.1569870000000 1.0   0.15
F      3  0.1824870000000  0.2418880000000  0.1569870000000 1.0   0.15
F      3 -0.3175130000000 -0.2418880000000 -0.3430130000000 1.0   0.15
F      3  0.3175130000000  0.2418880000000 -0.3430130000000 1.0   0.15
S      4  0.3099980000000 -0.2785000000000  0.3477450000000 1.0   0.01
S      4 -0.3099980000000  0.2785000000000  0.3477450000000 1.0   0.01
S      4  0.1900020000000 -0.2785000000000 -0.1522550000000 1.0   0.01
S      4 -0.1900020000000  0.2785000000000 -0.1522550000000 1.0   0.01
Fe     5 -0.1988160000000 -0.4659160000000  0.0982640000000 1.0   3.60
Fe     5  0.1988160000000  0.4659160000000  0.0982640000000 1.0   3.60
Fe     5 -0.3011840000000 -0.4659160000000 -0.4017360000000 1.0   3.60
Fe     5  0.3011840000000  0.4659160000000 -0.4017360000000 1.0   3.60
END
