TITL 4LiFeSO4F-200804-080552-4c9096 -0.0076 446.368672 -1.51297677E+004 16.0000 16.1678 32 (Cc) n - 1
REM
REM Run started: Wed, 05 Aug 2020 09:22:19 +0100 in /lustre/scratch/uccabz1/launch_tmp/launcher_2020-08-04-07-05-32-246935
REM CASTEP 20.1 from code version af48c487+ pr-geom-scf-spinfix Tue Jun 2 15:39:59 2020 +0100
REM Functional Perdew Burke Ernzerhof Relativity Koelling-Harmon Dispersion off
REM Cut-off 340.0000 eV Grid scale 1.7500 Gmax 16.5316 1/A FBSC none
REM MP grid 3 3 3 Offset 0.000 0.000 0.000 No. kpts 10 Spacing 0.07
REM Total runtime: 97286.8 s
REM Overall efficiency: 87 %
REM
REM 4LiFeSO4F.cell (79c870615ff1d88195b1fe3fe805288c)
REM
REM compiler GCC version 4.9.2
REM options -cpp -iprefix /lustre/shared/ucl/apps/gcc/4.9.2/bin/../lib/gcc/x86_64-unknown-linux-gnu/4.9.2/ -mtune=corei7 -march=x86-64 -g -Og
REM COMMAND_LINE
REM seed -802466680 -699000296 102821225 -133803340 1978028862 357512182 -1073057696 23963591 -540060695 261192300 -2039853362 -442534867
REM
REM S 3|1.8|5|6|7|30:31:32(qc=5)
REM O 2|1.5|12|13|15|20:21(qc=5)
REM Li 1|1.3|8|9|10|10U:20(qc=5)
REM Fe 3|2.2|2.0|1.0|8|9|10|40:41:32(qc=5)
REM F 2|1.6|10|12|13|20:21(qc=5)
REM 
CELL 1.54180    7.58290   10.35897   10.35897   44.47577   54.84577   54.84577
LATT -1
SFAC Li O  F  S  Fe 
Li     1 -0.0016880000000 -0.5270350000000 -0.3747270000000 1.0  -0.03
Li     1  0.4983120000000 -0.3747270000000 -0.5270350000000 1.0  -0.03
Li     1  0.3345020000000  0.2294640000000  0.2639100000000 1.0  -0.01
Li     1 -0.1654980000000  0.2639100000000  0.2294640000000 1.0  -0.01
O      2  0.0646700000000  0.0575730000000  0.1915010000000 1.0   0.04
O      2  0.0661480000000 -0.1695040000000  0.1761810000000 1.0   0.06
O      2 -0.0368220000000 -0.2475060000000  0.4900180000000 1.0   0.05
O      2  0.3557630000000 -0.2522210000000  0.2839050000000 1.0   0.02
O      2 -0.4353300000000  0.1915010000000  0.0575730000000 1.0   0.04
O      2 -0.4338520000000  0.1761810000000 -0.1695040000000 1.0   0.06
O      2 -0.5368220000000  0.4900180000000 -0.2475060000000 1.0   0.05
O      2 -0.1442370000000  0.2839050000000 -0.2522210000000 1.0   0.02
O      2  0.3189900000000  0.1214840000000  0.5141820000000 1.0   0.01
O      2  0.3589120000000  0.0312900000000  0.7942660000000 1.0   0.07
O      2  0.3150110000000  0.3657790000000  0.5104640000000 1.0   0.02
O      2  0.6659180000000  0.1058030000000  0.4968130000000 1.0   0.05
O      2 -0.1810100000000  0.5141820000000  0.1214840000000 1.0   0.01
O      2 -0.1410880000000  0.7942660000000  0.0312900000000 1.0   0.07
O      2 -0.1849890000000  0.5104640000000  0.3657790000000 1.0   0.02
O      2  0.1659180000000  0.4968130000000  0.1058030000000 1.0   0.05
F      3 -0.4899670000000 -0.1542380000000  0.4041600000000 1.0   0.11
F      3  0.0100330000000  0.4041600000000 -0.1542380000000 1.0   0.11
F      3  0.5582410000000 -0.2983810000000 -0.2035540000000 1.0   0.12
F      3  0.0582410000000 -0.2035540000000 -0.2983810000000 1.0   0.12
S      4  0.1179540000000 -0.1563250000000  0.2862860000000 1.0   0.01
S      4 -0.3820460000000  0.2862860000000 -0.1563250000000 1.0   0.01
S      4  0.4069070000000  0.1619470000000  0.5754350000000 1.0   0.00
S      4 -0.0930930000000  0.5754350000000  0.1619470000000 1.0   0.00
Fe     5 -0.2000540000000 -0.1935390000000 -0.3049840000000 1.0   3.75
Fe     5  0.2999460000000 -0.3049840000000 -0.1935390000000 1.0   3.75
Fe     5  0.2591880000000  0.1759820000000 -0.1010950000000 1.0   3.72
Fe     5 -0.2408120000000 -0.1010950000000  0.1759820000000 1.0   3.72
END
