TITL 4LiFeSO4F-200804-101228-0ee091 0.0488 549.431382 -1.51311174E+004 16.0000 16.2843 32 (P4) n - 1
REM
REM Run started: Tue, 04 Aug 2020 12:23:13 +0100 in /lustre/scratch/uccabz1/launch_tmp/launcher_2020-08-04-09-12-26-714109
REM CASTEP 20.1 from code version af48c487+ pr-geom-scf-spinfix Tue Jun 2 15:39:59 2020 +0100
REM Functional Perdew Burke Ernzerhof Relativity Koelling-Harmon Dispersion off
REM Cut-off 340.0000 eV Grid scale 1.7500 Gmax 16.5316 1/A FBSC none
REM MP grid 3 2 2 Offset 0.000 0.000 0.000 No. kpts 2 Spacing 0.07
REM Total runtime: 7907.67 s
REM Overall efficiency: 75 %
REM
REM 4LiFeSO4F.cell (79c870615ff1d88195b1fe3fe805288c)
REM
REM compiler GCC version 4.9.2
REM options -cpp -iprefix /lustre/shared/ucl/apps/gcc/4.9.2/bin/../lib/gcc/x86_64-unknown-linux-gnu/4.9.2/ -mtune=corei7 -march=x86-64 -g -Og
REM COMMAND_LINE
REM seed 1696203641 -594774041 978410841 -1885121971 -1683277850 -114643633 1174450766 283477468 -1689720045 606912985 2117304088 -789855882
REM
REM S 3|1.8|5|6|7|30:31:32(qc=5)
REM O 2|1.5|12|13|15|20:21(qc=5)
REM Li 1|1.3|8|9|10|10U:20(qc=5)
REM Fe 3|2.2|2.0|1.0|8|9|10|40:41:32(qc=5)
REM F 2|1.6|10|12|13|20:21(qc=5)
REM 
CELL 1.54180    5.16441   10.31446   10.31446   90.00000   90.00000   90.00000
LATT -1
SFAC Li O  F  S  Fe 
Li     1 -0.2813350000000 -0.0619040000000 -0.2238950000000 1.0  -0.02
Li     1 -0.2813350000000  0.0619040000000  0.2238950000000 1.0  -0.02
Li     1 -0.2813350000000  0.2238950000000 -0.0619040000000 1.0  -0.02
Li     1 -0.2813350000000 -0.2238950000000  0.0619040000000 1.0  -0.02
O      2  0.3680840000000 -0.0464130000000 -0.2950110000000 1.0   0.06
O      2 -0.0622670000000 -0.0793590000000 -0.3759040000000 1.0   0.04
O      2  0.2009000000000 -0.2714120000000 -0.3067080000000 1.0   0.07
O      2  0.3010530000000 -0.1581240000000 -0.5075690000000 1.0   0.06
O      2  0.3680840000000  0.0464130000000  0.2950110000000 1.0   0.06
O      2 -0.0622670000000  0.0793590000000  0.3759040000000 1.0   0.04
O      2  0.2009000000000  0.2714120000000  0.3067080000000 1.0   0.07
O      2  0.3010530000000  0.1581240000000  0.5075690000000 1.0   0.06
O      2  0.3680840000000  0.2950110000000 -0.0464130000000 1.0   0.06
O      2 -0.0622670000000  0.3759040000000 -0.0793590000000 1.0   0.04
O      2  0.2009000000000  0.3067080000000 -0.2714120000000 1.0   0.07
O      2  0.3010530000000  0.5075690000000 -0.1581240000000 1.0   0.06
O      2  0.3680840000000 -0.2950110000000  0.0464130000000 1.0   0.06
O      2 -0.0622670000000 -0.3759040000000  0.0793590000000 1.0   0.04
O      2  0.2009000000000 -0.3067080000000  0.2714120000000 1.0   0.07
O      2  0.3010530000000 -0.5075690000000  0.1581240000000 1.0   0.06
F      3 -0.1515630000000  0.1067110000000 -0.1894680000000 1.0   0.07
F      3 -0.1515630000000 -0.1067110000000  0.1894680000000 1.0   0.07
F      3 -0.1515630000000  0.1894680000000  0.1067110000000 1.0   0.07
F      3 -0.1515630000000 -0.1894680000000 -0.1067110000000 1.0   0.07
S      4  0.2001050000000 -0.1420740000000 -0.3724120000000 1.0   0.01
S      4  0.2001050000000  0.1420740000000  0.3724120000000 1.0   0.01
S      4  0.2001050000000  0.3724120000000 -0.1420740000000 1.0   0.01
S      4  0.2001050000000 -0.3724120000000  0.1420740000000 1.0   0.01
Fe     5  0.1317010000000 -0.1212410000000  0.3197350000000 1.0   3.70
Fe     5  0.1317010000000  0.1212410000000 -0.3197350000000 1.0   3.70
Fe     5  0.1317010000000 -0.3197350000000 -0.1212410000000 1.0   3.70
Fe     5  0.1317010000000  0.3197350000000  0.1212410000000 1.0   3.70
END
