TITL 4LiFeSO4F-200818-122342-d8b000 -0.0895 435.654101 -1.51302752E+004 16.0000 16.1884 32 (P-1) n - 1
REM
REM Run started: Wed, 19 Aug 2020 04:04:53 +0100 in /lustre/scratch/uccabz1/launch_tmp/launcher_2020-08-18-11-23-34-605750
REM CASTEP 20.1 from code version af48c487+ pr-geom-scf-spinfix Tue Jun 2 15:39:59 2020 +0100
REM Functional Perdew Burke Ernzerhof Relativity Koelling-Harmon Dispersion off
REM Cut-off 340.0000 eV Grid scale 1.7500 Gmax 16.5316 1/A FBSC none
REM MP grid 3 2 2 Offset 0.000 0.000 0.000 No. kpts 6 Spacing 0.07
REM Total runtime: 60669.8 s
REM Overall efficiency: 87 %
REM
REM 4LiFeSO4F.cell (79c870615ff1d88195b1fe3fe805288c)
REM
REM compiler GCC version 4.9.2
REM options -cpp -iprefix /lustre/shared/ucl/apps/gcc/4.9.2/bin/../lib/gcc/x86_64-unknown-linux-gnu/4.9.2/ -mtune=corei7 -march=x86-64 -g -Og
REM COMMAND_LINE
REM seed -688400847 -1579699993 1368269065 -1376617845 1665249013 1999856374 -1536965204 -1203232190 2043200317 -342725202 609922522 -1659599666
REM
REM S 3|1.8|5|6|7|30:31:32(qc=5)
REM O 2|1.5|12|13|15|20:21(qc=5)
REM Li 1|1.3|8|9|10|10U:20(qc=5)
REM Fe 3|2.2|2.0|1.0|8|9|10|40:41:32(qc=5)
REM F 2|1.6|10|12|13|20:21(qc=5)
REM 
CELL 1.54180    4.87996    7.50362   12.05701   93.37992   88.83950   81.46072
LATT -1
SFAC Li O  F  S  Fe 
Li     1 -0.3078350000000 -0.0378470000000  0.4164980000000 1.0  -0.01
Li     1  0.3078350000000  0.0378470000000 -0.4164980000000 1.0  -0.01
Li     1  0.1395170000000  0.0836270000000  0.2717710000000 1.0  -0.01
Li     1 -0.1395170000000 -0.0836270000000 -0.2717710000000 1.0  -0.01
O      2 -0.1907700000000 -0.3250190000000  0.1815750000000 1.0   0.04
O      2 -0.2314350000000 -0.0073150000000  0.2599490000000 1.0   0.01
O      2 -0.6111540000000 -0.1013630000000  0.1533330000000 1.0   0.04
O      2 -0.1650400000000 -0.0829020000000  0.0590590000000 1.0   0.07
O      2  0.1907700000000  0.3250190000000 -0.1815750000000 1.0   0.04
O      2  0.2314350000000  0.0073150000000 -0.2599490000000 1.0   0.01
O      2  0.6111540000000  0.1013630000000 -0.1533330000000 1.0   0.04
O      2  0.1650400000000  0.0829020000000 -0.0590590000000 1.0   0.07
O      2  0.3052900000000 -0.2900440000000  0.5600260000000 1.0   0.03
O      2  0.2761410000000 -0.0679260000000  0.4223710000000 1.0   0.01
O      2 -0.0701130000000 -0.2801510000000  0.4235050000000 1.0   0.03
O      2  0.4039590000000 -0.3893470000000  0.3598050000000 1.0   0.05
O      2 -0.3052900000000  0.2900440000000 -0.5600260000000 1.0   0.03
O      2 -0.2761410000000  0.0679260000000 -0.4223710000000 1.0   0.01
O      2  0.0701130000000  0.2801510000000 -0.4235050000000 1.0   0.03
O      2 -0.4039590000000  0.3893470000000 -0.3598050000000 1.0   0.05
F      3 -0.0841300000000 -0.3204320000000 -0.2606230000000 1.0   0.12
F      3  0.0841300000000  0.3204320000000  0.2606230000000 1.0   0.12
F      3  0.6054110000000  0.3390220000000  0.1088060000000 1.0   0.18
F      3 -0.6054110000000 -0.3390220000000 -0.1088060000000 1.0   0.18
S      4 -0.2984560000000 -0.1329420000000  0.1668780000000 1.0   0.01
S      4  0.2984560000000  0.1329420000000 -0.1668780000000 1.0   0.01
S      4  0.2305520000000 -0.2616830000000  0.4419880000000 1.0   0.01
S      4 -0.2305520000000  0.2616830000000 -0.4419880000000 1.0   0.01
Fe     5 -0.2260260000000  0.2050590000000 -0.0091290000000 1.0   3.66
Fe     5  0.2260260000000 -0.2050590000000  0.0091290000000 1.0   3.66
Fe     5 -0.7892070000000 -0.4934200000000 -0.3155100000000 1.0   3.75
Fe     5  0.7892070000000  0.4934200000000  0.3155100000000 1.0   3.75
END
