TITL 4LiFeSO4F-200818-044502-a4c786 0.0223 424.953332 -1.51297779E+004 16.0060 16.1798 32 (P-1) n - 1
REM
REM Run started: Wed, 19 Aug 2020 00:40:09 +0100 in /lustre/scratch/uccabz1/launch_tmp/launcher_2020-08-18-03-44-53-577878
REM CASTEP 20.1 from code version af48c487+ pr-geom-scf-spinfix Tue Jun 2 15:39:59 2020 +0100
REM Functional Perdew Burke Ernzerhof Relativity Koelling-Harmon Dispersion off
REM Cut-off 340.0000 eV Grid scale 1.7500 Gmax 16.5316 1/A FBSC none
REM MP grid 4 2 2 Offset 0.000 0.000 0.000 No. kpts 8 Spacing 0.07
REM Total runtime: 71928.9 s
REM Overall efficiency: 86.6364 %
REM
REM 4LiFeSO4F.cell (79c870615ff1d88195b1fe3fe805288c)
REM
REM compiler GCC version 4.9.2
REM options -cpp -iprefix /lustre/shared/ucl/apps/gcc/4.9.2/bin/../lib/gcc/x86_64-unknown-linux-gnu/4.9.2/ -mtune=corei7 -march=x86-64 -g -Og
REM COMMAND_LINE
REM seed -818884222 -727496810 -445272134 1163501157 -520229524 1989418103 680987745 -1669398398 -2050457303 267329463 1065724168 596628130
REM
REM S 3|1.8|5|6|7|30:31:32(qc=5)
REM O 2|1.5|12|13|15|20:21(qc=5)
REM Li 1|1.3|8|9|10|10U:20(qc=5)
REM Fe 3|2.2|2.0|1.0|8|9|10|40:41:32(qc=5)
REM F 2|1.6|10|12|13|20:21(qc=5)
REM 
CELL 1.54180    4.11008    7.68057   13.84106  102.74847   90.47864   85.71350
LATT -1
SFAC Li O  F  S  Fe 
Li     1 -0.4355300000000 -0.3282260000000 -0.0133110000000 1.0  -0.01
Li     1  0.4355300000000  0.3282260000000  0.0133110000000 1.0  -0.01
Li     1 -0.1117910000000  0.3730450000000  0.1916880000000 1.0  -0.02
Li     1  0.1117910000000 -0.3730450000000 -0.1916880000000 1.0  -0.02
O      2  0.2594340000000 -0.1566050000000  0.2143930000000 1.0   0.07
O      2 -0.1908800000000 -0.1796820000000  0.0969450000000 1.0   0.03
O      2 -0.1171100000000 -0.3822450000000  0.2155440000000 1.0   0.01
O      2  0.2501830000000 -0.4177730000000  0.0718560000000 1.0   0.01
O      2 -0.2594340000000  0.1566050000000 -0.2143930000000 1.0   0.07
O      2  0.1908800000000  0.1796820000000 -0.0969450000000 1.0   0.03
O      2  0.1171100000000  0.3822450000000 -0.2155440000000 1.0   0.01
O      2 -0.2501830000000  0.4177730000000 -0.0718560000000 1.0   0.01
O      2 -0.1765200000000 -0.2063430000000 -0.4421380000000 1.0   0.06
O      2 -0.1675910000000 -0.2541600000000 -0.2694230000000 1.0   0.06
O      2  0.2499770000000 -0.0925240000000 -0.3286100000000 1.0   0.07
O      2  0.2304340000000 -0.4213460000000 -0.3878350000000 1.0   0.05
O      2  0.1765200000000  0.2063430000000  0.4421380000000 1.0   0.06
O      2  0.1675910000000  0.2541600000000  0.2694230000000 1.0   0.06
O      2 -0.2499770000000  0.0925240000000  0.3286100000000 1.0   0.07
O      2 -0.2304340000000  0.4213460000000  0.3878350000000 1.0   0.05
F      3 -0.3977580000000  0.2252820000000  0.1158090000000 1.0   0.06
F      3  0.3977580000000 -0.2252820000000 -0.1158090000000 1.0   0.06
F      3  0.3182830000000 -0.2830980000000  0.4012430000000 1.0   0.12
F      3 -0.3182830000000  0.2830980000000 -0.4012430000000 1.0   0.12
S      4  0.0506170000000 -0.2856170000000  0.1499790000000 1.0   0.01
S      4 -0.0506170000000  0.2856170000000 -0.1499790000000 1.0   0.01
S      4  0.0363630000000 -0.2441390000000 -0.3605340000000 1.0   0.02
S      4 -0.0363630000000  0.2441390000000  0.3605340000000 1.0   0.02
Fe     5  0.4878870000000  0.0481060000000  0.1987140000000 1.0   3.70
Fe     5 -0.4878870000000 -0.0481060000000 -0.1987140000000 1.0   3.70
Fe     5  0.1687650000000  0.3067290000000 -0.4109530000000 1.0   3.77
Fe     5 -0.1687650000000 -0.3067290000000  0.4109530000000 1.0   3.77
END
