TITL 4LiFeSO4F-200817-233920-ffaa66 -0.0185 428.735291 -1.51307806E+004 15.9945 16.1599 32 (P21) n - 1
REM
REM Run started: Tue, 18 Aug 2020 06:08:05 +0100 in /lustre/scratch/uccabz1/launch_tmp/launcher_2020-08-17-22-39-15-713929
REM CASTEP 20.1 from code version af48c487+ pr-geom-scf-spinfix Tue Jun 2 15:39:59 2020 +0100
REM Functional Perdew Burke Ernzerhof Relativity Koelling-Harmon Dispersion off
REM Cut-off 340.0000 eV Grid scale 1.7500 Gmax 16.5316 1/A FBSC none
REM MP grid 3 2 2 Offset 0.000 0.000 0.000 No. kpts 3 Spacing 0.07
REM Total runtime: 23413.3 s
REM Overall efficiency: 74.5385 %
REM
REM 4LiFeSO4F.cell (79c870615ff1d88195b1fe3fe805288c)
REM
REM compiler GCC version 4.9.2
REM options -cpp -iprefix /lustre/shared/ucl/apps/gcc/4.9.2/bin/../lib/gcc/x86_64-unknown-linux-gnu/4.9.2/ -mtune=corei7 -march=x86-64 -g -Og
REM COMMAND_LINE
REM seed 705388757 1850571885 1681416340 -783664363 -916463743 59645715 -1587488165 -873327793 1520435121 -246222556 -161009891 665432815
REM
REM S 3|1.8|5|6|7|30:31:32(qc=5)
REM O 2|1.5|12|13|15|20:21(qc=5)
REM Li 1|1.3|8|9|10|10U:20(qc=5)
REM Fe 3|2.2|2.0|1.0|8|9|10|40:41:32(qc=5)
REM F 2|1.6|10|12|13|20:21(qc=5)
REM 
CELL 1.54180    5.22731    8.19293   10.49595   90.00000   90.00000  107.48724
LATT -1
SFAC Li O  F  S  Fe 
Li     1  0.3800540000000  0.3183200000000 -0.0758860000000 1.0  -0.02
Li     1 -0.3800540000000 -0.3183200000000  0.4241140000000 1.0  -0.02
Li     1 -0.1185790000000  0.2813230000000  0.3905400000000 1.0  -0.04
Li     1  0.1185790000000 -0.2813230000000 -0.1094600000000 1.0  -0.04
O      2  0.1726800000000  0.3604000000000  0.0819310000000 1.0   0.05
O      2 -0.1946010000000  0.3859280000000  0.2217400000000 1.0   0.05
O      2 -0.2759940000000  0.3341250000000 -0.0070320000000 1.0   0.01
O      2  0.0143300000000  0.6133460000000  0.0661190000000 1.0   0.04
O      2 -0.1726800000000 -0.3604000000000 -0.4180690000000 1.0   0.05
O      2  0.1946010000000 -0.3859280000000 -0.2782600000000 1.0   0.05
O      2  0.2759940000000 -0.3341250000000 -0.5070320000000 1.0   0.01
O      2 -0.0143300000000 -0.6133460000000 -0.4338810000000 1.0   0.04
O      2 -0.0717610000000 -0.1478760000000 -0.2019530000000 1.0   0.07
O      2  0.0862050000000  0.1543180000000 -0.1463530000000 1.0   0.01
O      2 -0.2706560000000  0.0452310000000 -0.3079190000000 1.0   0.08
O      2  0.1971560000000  0.0598280000000 -0.3577960000000 1.0   0.05
O      2  0.0717610000000  0.1478760000000  0.2980470000000 1.0   0.07
O      2 -0.0862050000000 -0.1543180000000  0.3536470000000 1.0   0.01
O      2  0.2706560000000 -0.0452310000000  0.1920810000000 1.0   0.08
O      2 -0.1971560000000 -0.0598280000000  0.1422040000000 1.0   0.05
F      3 -0.4519720000000  0.4077370000000 -0.2416680000000 1.0   0.11
F      3  0.4519720000000 -0.4077370000000  0.2583320000000 1.0   0.11
F      3  0.4648790000000 -0.2720240000000 -0.0627690000000 1.0   0.08
F      3 -0.4648790000000  0.2720240000000  0.4372310000000 1.0   0.08
S      4 -0.0740210000000  0.4213910000000  0.0877790000000 1.0   0.01
S      4  0.0740210000000 -0.4213910000000 -0.4122210000000 1.0   0.01
S      4 -0.0065730000000  0.0358010000000 -0.2532160000000 1.0   0.01
S      4  0.0065730000000 -0.0358010000000  0.2467840000000 1.0   0.01
Fe     5 -0.3989290000000 -0.3397360000000 -0.2507660000000 1.0   3.72
Fe     5  0.3989290000000  0.3397360000000  0.2492340000000 1.0   3.72
Fe     5 -0.5799000000000 -0.2245110000000  0.1241030000000 1.0   3.76
Fe     5  0.5799000000000  0.2245110000000 -0.3758970000000 1.0   3.76
END
