TITL 4LiFeSO4F-200818-053045-010382 -0.0003 507.063904 -1.51318392E+004 16.0000 16.3675 32 (Pba2) n - 1
REM
REM Run started: Tue, 18 Aug 2020 09:24:51 +0100 in /lustre/scratch/uccabz1/launch_tmp/launcher_2020-08-18-04-30-43-422592
REM CASTEP 20.1 from code version af48c487+ pr-geom-scf-spinfix Tue Jun 2 15:39:59 2020 +0100
REM Functional Perdew Burke Ernzerhof Relativity Koelling-Harmon Dispersion off
REM Cut-off 340.0000 eV Grid scale 1.7500 Gmax 16.5316 1/A FBSC none
REM MP grid 3 3 1 Offset 0.000 0.000 0.000 No. kpts 4 Spacing 0.07
REM Total runtime: 14149.7 s
REM Overall efficiency: 77.2 %
REM
REM 4LiFeSO4F.cell (79c870615ff1d88195b1fe3fe805288c)
REM
REM compiler GCC version 4.9.2
REM options -cpp -iprefix /lustre/shared/ucl/apps/gcc/4.9.2/bin/../lib/gcc/x86_64-unknown-linux-gnu/4.9.2/ -mtune=corei7 -march=x86-64 -g -Og
REM COMMAND_LINE
REM seed -1713491285 1311046677 -455614197 1064525081 943539825 2093493208 -1079661855 1663949034 -980893270 -1034409811 1791952633 1377455571
REM
REM S 3|1.8|5|6|7|30:31:32(qc=5)
REM O 2|1.5|12|13|15|20:21(qc=5)
REM Li 1|1.3|8|9|10|10U:20(qc=5)
REM Fe 3|2.2|2.0|1.0|8|9|10|40:41:32(qc=5)
REM F 2|1.6|10|12|13|20:21(qc=5)
REM 
CELL 1.54180    5.54991    6.17189   14.80329   90.00000   90.00000   90.00000
LATT -1
SFAC Li O  F  S  Fe 
Li     1  0.3827520000000 -0.0476870000000  0.2073200000000 1.0  -0.02
Li     1  0.3827520000000  0.0476870000000 -0.2073200000000 1.0  -0.02
Li     1  0.3827520000000 -0.5476870000000  0.2926800000000 1.0  -0.02
Li     1  0.3827520000000  0.5476870000000 -0.2926800000000 1.0  -0.02
O      2 -0.0256400000000  0.0641060000000  0.3526070000000 1.0   0.08
O      2  0.0676010000000  0.4441870000000  0.3725610000000 1.0   0.07
O      2 -0.1272600000000  0.2432290000000  0.4967150000000 1.0   0.07
O      2 -0.3573470000000  0.3270750000000  0.3605750000000 1.0   0.02
O      2 -0.0256400000000 -0.0641060000000 -0.3526070000000 1.0   0.08
O      2  0.0676010000000 -0.4441870000000 -0.3725610000000 1.0   0.07
O      2 -0.1272600000000 -0.2432290000000 -0.4967150000000 1.0   0.07
O      2 -0.3573470000000 -0.3270750000000 -0.3605750000000 1.0   0.02
O      2 -0.0256400000000 -0.4358940000000  0.1473930000000 1.0   0.08
O      2  0.0676010000000 -0.0558130000000  0.1274390000000 1.0   0.07
O      2 -0.1272600000000 -0.2567710000000  0.0032850000000 1.0   0.07
O      2 -0.3573470000000 -0.1729250000000  0.1394250000000 1.0   0.02
O      2 -0.0256400000000  0.4358940000000 -0.1473930000000 1.0   0.08
O      2  0.0676010000000  0.0558130000000 -0.1274390000000 1.0   0.07
O      2 -0.1272600000000  0.2567710000000 -0.0032850000000 1.0   0.07
O      2 -0.3573470000000  0.1729250000000 -0.1394250000000 1.0   0.02
F      3  0.3305490000000  0.2406880000000 -0.3051720000000 1.0   0.08
F      3  0.3305490000000 -0.2406880000000  0.3051720000000 1.0   0.08
F      3  0.3305490000000 -0.2593120000000 -0.1948280000000 1.0   0.08
F      3  0.3305490000000  0.2593120000000  0.1948280000000 1.0   0.08
S      4 -0.1179210000000  0.2700940000000  0.3954160000000 1.0   0.02
S      4 -0.1179210000000 -0.2700940000000 -0.3954160000000 1.0   0.02
S      4 -0.1179210000000 -0.2299060000000  0.1045840000000 1.0   0.02
S      4 -0.1179210000000  0.2299060000000 -0.1045840000000 1.0   0.02
Fe     5  0.0616420000000  0.2684900000000  0.1086970000000 1.0   3.67
Fe     5  0.0616420000000 -0.2684900000000 -0.1086970000000 1.0   3.67
Fe     5  0.0616420000000 -0.2315100000000  0.3913030000000 1.0   3.67
Fe     5  0.0616420000000  0.2315100000000 -0.3913030000000 1.0   3.67
END
