TITL 4LiFeSO4F-200804-062136-fa3e05 0.0648 454.022917 -1.51317969E+004 15.9993 16.2515 32 (P-1) n - 1
REM
REM Run started: Tue, 04 Aug 2020 14:44:57 +0100 in /lustre/scratch/uccabz1/launch_tmp/launcher_2020-08-04-05-21-29-229904
REM CASTEP 20.1 from code version af48c487+ pr-geom-scf-spinfix Tue Jun 2 15:39:59 2020 +0100
REM Functional Perdew Burke Ernzerhof Relativity Koelling-Harmon Dispersion off
REM Cut-off 340.0000 eV Grid scale 1.7500 Gmax 16.5316 1/A FBSC none
REM MP grid 3 2 2 Offset 0.000 0.000 0.000 No. kpts 6 Spacing 0.07
REM Total runtime: 30326.7 s
REM Overall efficiency: 75.1818 %
REM
REM 4LiFeSO4F.cell (79c870615ff1d88195b1fe3fe805288c)
REM
REM compiler GCC version 4.9.2
REM options -cpp -iprefix /lustre/shared/ucl/apps/gcc/4.9.2/bin/../lib/gcc/x86_64-unknown-linux-gnu/4.9.2/ -mtune=corei7 -march=x86-64 -g -Og
REM COMMAND_LINE
REM seed 1993123989 -1595995554 -205867039 -1818425282 121007962 1976037704 1721381906 919575814 612230777 702080198 1728668775 1630971304
REM
REM S 3|1.8|5|6|7|30:31:32(qc=5)
REM O 2|1.5|12|13|15|20:21(qc=5)
REM Li 1|1.3|8|9|10|10U:20(qc=5)
REM Fe 3|2.2|2.0|1.0|8|9|10|40:41:32(qc=5)
REM F 2|1.6|10|12|13|20:21(qc=5)
REM 
CELL 1.54180    5.28249    9.38867    9.70862   89.61195   85.47919   71.09467
LATT -1
SFAC Li O  F  S  Fe 
Li     1 -0.2344740000000 -0.5094220000000  0.0251880000000 1.0  -0.01
Li     1  0.2344740000000  0.5094220000000 -0.0251880000000 1.0  -0.01
Li     1 -0.5403010000000  0.2074950000000 -0.3061410000000 1.0  -0.01
Li     1  0.5403010000000 -0.2074950000000  0.3061410000000 1.0  -0.01
O      2 -0.4462010000000  0.1476710000000  0.0860470000000 1.0   0.07
O      2 -0.0172470000000  0.1585620000000 -0.0151230000000 1.0   0.05
O      2 -0.4255280000000  0.3540790000000 -0.0716760000000 1.0   0.01
O      2 -0.3246150000000  0.0958540000000 -0.1632470000000 1.0   0.04
O      2  0.4462010000000 -0.1476710000000 -0.0860470000000 1.0   0.07
O      2  0.0172470000000 -0.1585620000000  0.0151230000000 1.0   0.05
O      2  0.4255280000000 -0.3540790000000  0.0716760000000 1.0   0.01
O      2  0.3246150000000 -0.0958540000000  0.1632470000000 1.0   0.04
O      2  0.3675830000000 -0.2347230000000 -0.5262230000000 1.0   0.01
O      2  0.0563250000000 -0.1776520000000 -0.3190950000000 1.0   0.06
O      2  0.4833990000000 -0.3826110000000 -0.3152580000000 1.0   0.05
O      2  0.1285320000000 -0.4115010000000 -0.4536390000000 1.0   0.08
O      2 -0.3675830000000  0.2347230000000  0.5262230000000 1.0   0.01
O      2 -0.0563250000000  0.1776520000000  0.3190950000000 1.0   0.06
O      2 -0.4833990000000  0.3826110000000  0.3152580000000 1.0   0.05
O      2 -0.1285320000000  0.4115010000000  0.4536390000000 1.0   0.08
F      3  0.1176610000000  0.3153490000000 -0.2787000000000 1.0   0.12
F      3 -0.1176610000000 -0.3153490000000  0.2787000000000 1.0   0.12
F      3 -0.0695720000000 -0.4132100000000 -0.1266030000000 1.0   0.07
F      3  0.0695720000000  0.4132100000000  0.1266030000000 1.0   0.07
S      4 -0.3042580000000  0.1897000000000 -0.0409060000000 1.0   0.02
S      4  0.3042580000000 -0.1897000000000  0.0409060000000 1.0   0.02
S      4  0.2627480000000 -0.2995540000000 -0.4054280000000 1.0   0.02
S      4 -0.2627480000000  0.2995540000000  0.4054280000000 1.0   0.02
Fe     5  0.1921740000000  0.1542530000000  0.1509410000000 1.0   3.70
Fe     5 -0.1921740000000 -0.1542530000000 -0.1509410000000 1.0   3.70
Fe     5 -0.1283660000000  0.4970600000000 -0.3328700000000 1.0   3.72
Fe     5  0.1283660000000 -0.4970600000000  0.3328700000000 1.0   3.72
END
