TITL 4LiFeSO4F-200818-053505-c1e881 -0.0074 410.592225 -1.51313876E+004 16.0000 16.2111 32 (P-1) n - 1
REM
REM Run started: Wed, 19 Aug 2020 00:48:23 +0100 in /scratch/scratch/uccabz1/launch_tmp/launcher_2020-08-18-19-48-48-549727
REM CASTEP 19.11| from code version Version unavailable
REM Functional Perdew Burke Ernzerhof Relativity Koelling-Harmon Dispersion off
REM Cut-off 340.0000 eV Grid scale 1.7500 Gmax 16.5316 1/A FBSC none
REM MP grid 3 2 2 Offset 0.000 0.000 0.000 No. kpts 6 Spacing 0.07
REM Total runtime: 17659.4 s
REM Overall efficiency: 76.7143 %
REM
REM
REM
REM compiler GCC version 4.9.2
REM options -cpp -iprefix /scratch/UCL/applications/gcc/4.9.2/bin/../lib/gcc/x86_64-unknown-linux-gnu/4.9.2/ -mtune=corei7 -march=x86-64 -g -O2
REM COMMAND_LINE
REM seed 1427811459 108682974 575687530 1375446836 212076417 -909958496 -1471411743 2132140787 1857120546 -831040740 -382336974 -255065137
REM
REM S 3|1.8|5|6|7|30:31:32(qc=5)
REM O 2|1.5|12|13|15|20:21(qc=5)
REM Li 1|1.3|8|9|10|10U:20(qc=5)
REM Fe 3|2.2|2.0|1.0|8|9|10|40:41:32(qc=5)
REM F 2|1.6|10|12|13|20:21(qc=5)
REM 
CELL 1.54180    6.76373    7.86484    8.16414   99.35830  106.56293   85.90693
LATT -1
SFAC Li O  F  S  Fe 
Li     1 -0.5546690000000  0.0311470000000 -0.2760190000000 1.0  -0.02
Li     1  0.5546690000000 -0.0311470000000  0.2760190000000 1.0  -0.02
Li     1 -0.3406540000000 -0.5296680000000 -0.3625470000000 1.0  -0.02
Li     1  0.3406540000000  0.5296680000000  0.3625470000000 1.0  -0.02
O      2 -0.0840840000000  0.2964170000000 -0.3568490000000 1.0   0.06
O      2  0.0233110000000 -0.0013830000000 -0.2888380000000 1.0   0.05
O      2 -0.3119670000000  0.0552780000000 -0.4930300000000 1.0   0.02
O      2 -0.2576610000000  0.1622170000000 -0.1874030000000 1.0   0.05
O      2  0.0840840000000 -0.2964170000000  0.3568490000000 1.0   0.06
O      2 -0.0233110000000  0.0013830000000  0.2888380000000 1.0   0.05
O      2  0.3119670000000 -0.0552780000000  0.4930300000000 1.0   0.02
O      2  0.2576610000000 -0.1622170000000  0.1874030000000 1.0   0.05
O      2 -0.1969130000000 -0.1384790000000 -0.0600370000000 1.0   0.09
O      2 -0.3592300000000 -0.4217730000000 -0.1371800000000 1.0   0.01
O      2 -0.5701120000000 -0.1504840000000 -0.1273760000000 1.0   0.04
O      2 -0.3535140000000 -0.2442450000000  0.1408960000000 1.0   0.05
O      2  0.1969130000000  0.1384790000000  0.0600370000000 1.0   0.09
O      2  0.3592300000000  0.4217730000000  0.1371800000000 1.0   0.01
O      2  0.5701120000000  0.1504840000000  0.1273760000000 1.0   0.04
O      2  0.3535140000000  0.2442450000000 -0.1408960000000 1.0   0.05
F      3  0.3624670000000 -0.5795520000000 -0.4434740000000 1.0   0.08
F      3 -0.3624670000000  0.5795520000000  0.4434740000000 1.0   0.08
F      3  0.0799980000000 -0.3652110000000 -0.1968500000000 1.0   0.14
F      3 -0.0799980000000  0.3652110000000  0.1968500000000 1.0   0.14
S      4 -0.1552920000000  0.1232170000000 -0.3342710000000 1.0   0.01
S      4  0.1552920000000 -0.1232170000000  0.3342710000000 1.0   0.01
S      4 -0.3724880000000 -0.2442010000000 -0.0493000000000 1.0   0.01
S      4  0.3724880000000  0.2442010000000  0.0493000000000 1.0   0.01
Fe     5 -0.1150110000000  0.1172440000000  0.0659520000000 1.0   3.67
Fe     5  0.1150110000000 -0.1172440000000 -0.0659520000000 1.0   3.67
Fe     5  0.1906380000000  0.4212950000000 -0.2890820000000 1.0   3.75
Fe     5 -0.1906380000000 -0.4212950000000  0.2890820000000 1.0   3.75
END
