TITL 4LiFeSO4F-200804-080758-9232b3 0.0320 453.196787 -1.51241835E+004 -19.3718 19.5259 32 (P2) n - 1
REM
REM Run started: Wed, 05 Aug 2020 03:52:52 +0100 in /lustre/scratch/uccabz1/launch_tmp/launcher_2020-08-04-16-42-25-329414
REM CASTEP 20.1 from code version af48c487+ pr-geom-scf-spinfix Tue Jun 2 15:39:59 2020 +0100
REM Functional Perdew Burke Ernzerhof Relativity Koelling-Harmon Dispersion off
REM Cut-off 340.0000 eV Grid scale 1.7500 Gmax 16.5316 1/A FBSC none
REM MP grid 3 2 2 Offset 0.000 0.000 0.000 No. kpts 3 Spacing 0.07
REM Total runtime: 36740.4 s
REM Overall efficiency: 73.5556 %
REM
REM
REM
REM compiler GCC version 4.9.2
REM options -cpp -iprefix /lustre/shared/ucl/apps/gcc/4.9.2/bin/../lib/gcc/x86_64-unknown-linux-gnu/4.9.2/ -mtune=corei7 -march=x86-64 -g -Og
REM COMMAND_LINE
REM seed -1116956168 539972261 1190399763 2037981104 489738037 -754562425 -1770554750 -1132040969 -41285984 1322196036 -1400970090 -1687686766
REM
REM S 3|1.8|5|6|7|30:31:32(qc=5)
REM O 2|1.5|12|13|15|20:21(qc=5)
REM Li 1|1.3|8|9|10|10U:20(qc=5)
REM Fe 3|2.2|2.0|1.0|8|9|10|40:41:32(qc=5)
REM F 2|1.6|10|12|13|20:21(qc=5)
REM 
CELL 1.54180    6.67380    7.97816    8.52434   90.00000   90.00000   93.13323
LATT -1
SFAC Li O  F  S  Fe 
Li     1 -0.0000000000000  0.5000000000000  0.2479450000000 1.0   0.00
Li     1 -0.5000000000000 -0.5000000000000 -0.3863540000000 1.0   0.04
Li     1 -0.5000000000000 -0.5000000000000  0.0489000000000 1.0   0.04
Li     1 -0.5000000000000  0.0000000000000  0.3041360000000 1.0   0.04
O      2 -0.1563480000000  0.0908610000000 -0.5067320000000 1.0  -0.12
O      2 -0.3185450000000  0.0819780000000 -0.2536210000000 1.0  -0.03
O      2 -0.5057700000000  0.1728900000000 -0.4933990000000 1.0  -0.04
O      2 -0.2423030000000  0.3587720000000 -0.3836470000000 1.0  -0.05
O      2  0.1563480000000 -0.0908610000000 -0.5067320000000 1.0  -0.12
O      2  0.3185450000000 -0.0819780000000 -0.2536210000000 1.0  -0.03
O      2  0.5057700000000 -0.1728900000000 -0.4933990000000 1.0  -0.04
O      2  0.2423030000000 -0.3587720000000 -0.3836470000000 1.0  -0.05
O      2 -0.2845390000000  0.0313210000000  0.1436980000000 1.0  -0.16
O      2 -0.2370540000000  0.3383130000000  0.2281810000000 1.0  -0.03
O      2 -0.4482620000000  0.2421190000000  0.0068200000000 1.0  -0.21
O      2  0.2845390000000 -0.0313210000000  0.1436980000000 1.0  -0.16
O      2  0.2370540000000 -0.3383130000000  0.2281810000000 1.0  -0.03
O      2  0.4482620000000 -0.2421190000000  0.0068200000000 1.0  -0.21
O      2 -0.0000000000000  0.5000000000000 -0.0579320000000 1.0  -0.81
O      2 -0.5000000000000 -0.5000000000000 -0.1685660000000 1.0  -1.29
F      3  0.1524040000000  0.3022830000000 -0.3218420000000 1.0  -0.16
F      3 -0.1524040000000 -0.3022830000000 -0.3218420000000 1.0  -0.16
F      3  0.1708700000000  0.3268390000000  0.3350840000000 1.0  -0.20
F      3 -0.1708700000000 -0.3268390000000  0.3350840000000 1.0  -0.20
S      4 -0.3127860000000  0.1780100000000 -0.4017450000000 1.0  -0.02
S      4  0.3127860000000 -0.1780100000000 -0.4017450000000 1.0  -0.02
S      4 -0.2312210000000  0.2213830000000  0.0889100000000 1.0  -0.01
S      4  0.2312210000000 -0.2213830000000  0.0889100000000 1.0  -0.01
Fe     5  0.1539450000000  0.1661670000000  0.4874770000000 1.0  -3.88
Fe     5 -0.1539450000000 -0.1661670000000  0.4874770000000 1.0  -3.88
Fe     5  0.5000000000000  0.0000000000000 -0.0404150000000 1.0  -3.95
Fe     5 -0.0000000000000  0.5000000000000 -0.2559920000000 1.0  -3.62
END
