TITL 4LiFeSO4F-200817-225836-8be838 0.0480 523.766323 -1.51293630E+004 16.0007 16.3165 32 (P2) n - 1
REM
REM Run started: Tue, 18 Aug 2020 05:49:16 +0100 in /scratch/scratch/uccabz1/launch_tmp/launcher_2020-08-17-21-58-32-257179
REM CASTEP 19.11| from code version Version unavailable
REM Functional Perdew Burke Ernzerhof Relativity Koelling-Harmon Dispersion off
REM Cut-off 340.0000 eV Grid scale 1.7500 Gmax 16.5316 1/A FBSC none
REM MP grid 3 2 2 Offset 0.000 0.000 0.000 No. kpts 4 Spacing 0.07
REM Total runtime: 24452.4 s
REM Overall efficiency: 74.3 %
REM
REM 4LiFeSO4F.cell (79c870615ff1d88195b1fe3fe805288c)
REM
REM compiler GCC version 4.9.2
REM options -cpp -iprefix /scratch/UCL/applications/gcc/4.9.2/bin/../lib/gcc/x86_64-unknown-linux-gnu/4.9.2/ -mtune=corei7 -march=x86-64 -g -O2
REM COMMAND_LINE
REM seed 546803335 1667942821 -992602487 -837830879 2038813318 -262370463 1923218923 2060444672 583264321 1323423402 1380699684 -758690524
REM
REM S 3|1.8|5|6|7|30:31:32(qc=5)
REM O 2|1.5|12|13|15|20:21(qc=5)
REM Li 1|1.3|8|9|10|10U:20(qc=5)
REM Fe 3|2.2|2.0|1.0|8|9|10|40:41:32(qc=5)
REM F 2|1.6|10|12|13|20:21(qc=5)
REM 
CELL 1.54180    4.90781   11.32491   10.34561  114.37334   90.00000   90.00000
LATT -1
SFAC Li O  F  S  Fe 
Li     1 -0.1531320000000 -0.1088750000000  0.3979780000000 1.0  -0.01
Li     1 -0.1531320000000  0.1088750000000 -0.3979780000000 1.0  -0.01
Li     1  0.1328980000000  0.3745590000000 -0.2339530000000 1.0   0.00
Li     1  0.1328980000000 -0.3745590000000  0.2339530000000 1.0   0.00
O      2 -0.3290750000000 -0.3119490000000 -0.0577000000000 1.0   0.09
O      2 -0.6476690000000 -0.4504110000000 -0.2403250000000 1.0   0.08
O      2 -0.2398730000000 -0.5490020000000 -0.1903330000000 1.0   0.02
O      2 -0.1985410000000 -0.3998460000000 -0.3099690000000 1.0   0.10
O      2 -0.3290750000000  0.3119490000000  0.0577000000000 1.0   0.09
O      2 -0.6476690000000  0.4504110000000  0.2403250000000 1.0   0.08
O      2 -0.2398730000000  0.5490020000000  0.1903330000000 1.0   0.02
O      2 -0.1985410000000  0.3998460000000  0.3099690000000 1.0   0.10
O      2  0.5380090000000 -0.1217290000000 -0.4998780000000 1.0   0.01
O      2  0.1012060000000 -0.0303660000000 -0.3761330000000 1.0   0.01
O      2  0.3176050000000 -0.2236980000000 -0.3652050000000 1.0   0.12
O      2  0.1024660000000 -0.2353000000000 -0.5851700000000 1.0   0.00
O      2  0.5380090000000  0.1217290000000  0.4998780000000 1.0   0.01
O      2  0.1012060000000  0.0303660000000  0.3761330000000 1.0   0.01
O      2  0.3176050000000  0.2236980000000  0.3652050000000 1.0   0.12
O      2  0.1024660000000  0.2353000000000  0.5851700000000 1.0   0.00
F      3  0.0240080000000  0.1223240000000  0.1100230000000 1.0   0.17
F      3  0.0240080000000 -0.1223240000000 -0.1100230000000 1.0   0.17
F      3  0.1674130000000 -0.2897250000000  0.1142800000000 1.0   0.11
F      3  0.1674130000000  0.2897250000000 -0.1142800000000 1.0   0.11
S      4 -0.3465400000000 -0.4308180000000 -0.1980350000000 1.0   0.01
S      4 -0.3465400000000  0.4308180000000  0.1980350000000 1.0   0.01
S      4  0.2659150000000 -0.1489490000000 -0.4575190000000 1.0   0.00
S      4  0.2659150000000  0.1489490000000  0.4575190000000 1.0   0.00
Fe     5  0.1442630000000  0.3031500000000  0.2584370000000 1.0   3.68
Fe     5  0.1442630000000 -0.3031500000000 -0.2584370000000 1.0   3.68
Fe     5  0.0316840000000  0.2196480000000  0.0034750000000 1.0   3.59
Fe     5  0.0316840000000 -0.2196480000000 -0.0034750000000 1.0   3.59
END
