TITL 4LiFeSO4F-200818-014346-65f8e1 -0.2704 427.615591 -1.51311302E+004 16.0000 16.3688 32 (Cc) n - 1
REM
REM Run started: Wed, 19 Aug 2020 01:26:32 +0100 in /lustre/scratch/uccabz1/launch_tmp/launcher_2020-08-18-15-18-51-221860
REM CASTEP 20.1 from code version af48c487+ pr-geom-scf-spinfix Tue Jun 2 15:39:59 2020 +0100
REM Functional Perdew Burke Ernzerhof Relativity Koelling-Harmon Dispersion off
REM Cut-off 340.0000 eV Grid scale 1.7500 Gmax 16.5316 1/A FBSC none
REM MP grid 3 3 3 Offset 0.000 0.000 0.000 No. kpts 10 Spacing 0.07
REM Total runtime: 44934.3 s
REM Overall efficiency: 97.7143 %
REM
REM
REM
REM compiler GCC version 4.9.2
REM options -cpp -iprefix /lustre/shared/ucl/apps/gcc/4.9.2/bin/../lib/gcc/x86_64-unknown-linux-gnu/4.9.2/ -mtune=corei7 -march=x86-64 -g -Og
REM COMMAND_LINE
REM seed -640662469 1528643121 1039234561 -1619016042 509658071 1680987518 1146753932 1970334774 263642118 868394454 -1063821445 1957092090
REM
REM S 3|1.8|5|6|7|30:31:32(qc=5)
REM O 2|1.5|12|13|15|20:21(qc=5)
REM Li 1|1.3|8|9|10|10U:20(qc=5)
REM Fe 3|2.2|2.0|1.0|8|9|10|40:41:32(qc=5)
REM F 2|1.6|10|12|13|20:21(qc=5)
REM 
CELL 1.54180    9.49798   11.49559    8.00771   44.12829   59.27756   44.62276
LATT -1
SFAC Li O  F  S  Fe 
Li     1  0.3448550000000  0.2675620000000 -0.0048400000000 1.0  -0.04
Li     1 -0.1551450000000  0.2627210000000  0.0048420000000 1.0  -0.04
Li     1  0.2155660000000  0.0615470000000 -0.4354720000000 1.0  -0.02
Li     1 -0.2844340000000 -0.3739260000000  0.4354740000000 1.0  -0.02
O      2  0.1659570000000 -0.5010880000000  0.0202960000000 1.0   0.05
O      2 -0.0735910000000 -0.3238140000000  0.2146070000000 1.0   0.03
O      2  0.2803760000000 -0.4548940000000  0.1759220000000 1.0   0.04
O      2  0.1849110000000 -0.6953780000000  0.4514750000000 1.0   0.05
O      2 -0.3340430000000 -0.4807930000000 -0.0202940000000 1.0   0.05
O      2 -0.5735910000000 -0.1092070000000 -0.2146050000000 1.0   0.03
O      2 -0.2196240000000 -0.2789730000000 -0.1759200000000 1.0   0.04
O      2 -0.3150890000000 -0.2439040000000 -0.4514730000000 1.0   0.05
O      2 -0.3509590000000  0.1491480000000 -0.0742390000000 1.0   0.06
O      2 -0.2312260000000  0.3630510000000 -0.2921220000000 1.0   0.01
O      2 -0.3192000000000  0.3490180000000 -0.5153370000000 1.0   0.06
O      2 -0.0162800000000  0.0501740000000 -0.2611100000000 1.0   0.01
O      2  0.1490410000000  0.0749090000000  0.0742410000000 1.0   0.06
O      2  0.2687740000000  0.0709280000000  0.2921240000000 1.0   0.01
O      2  0.1808000000000 -0.1663200000000  0.5153390000000 1.0   0.06
O      2  0.4837200000000 -0.2109370000000  0.2611120000000 1.0   0.01
F      3  0.5355090000000  0.1484180000000  0.6413430000000 1.0   0.15
F      3  0.0355090000000 -0.2102400000000 -0.6413410000000 1.0   0.15
F      3 -0.3138870000000  0.1718690000000  0.2312210000000 1.0   0.08
F      3  0.1861130000000  0.4030890000000 -0.2312190000000 1.0   0.08
S      4  0.1391410000000 -0.4890730000000  0.2124220000000 1.0   0.02
S      4 -0.3608590000000 -0.2766520000000 -0.2124200000000 1.0   0.02
S      4 -0.2258030000000  0.2279250000000 -0.2908790000000 1.0   0.01
S      4  0.2741970000000 -0.0629550000000  0.2908810000000 1.0   0.01
Fe     5  0.0514760000000 -0.3115900000000 -0.3170990000000 1.0   3.74
Fe     5 -0.4485240000000  0.3713100000000  0.3171010000000 1.0   3.74
Fe     5 -0.2150770000000 -0.0681700000000  0.2420370000000 1.0   3.74
Fe     5  0.2849230000000  0.1738670000000 -0.2420350000000 1.0   3.74
END
