TITL 4LiFeSO4F-200818-074338-87df65 0.0833 444.401586 -1.51312187E+004 16.0000 16.2512 32 (P-1) n - 1
REM
REM Run started: Wed, 19 Aug 2020 01:02:41 +0100 in /lustre/scratch/uccabz1/launch_tmp/launcher_2020-08-18-13-57-45-207148
REM CASTEP 20.1 from code version af48c487+ pr-geom-scf-spinfix Tue Jun 2 15:39:59 2020 +0100
REM Functional Perdew Burke Ernzerhof Relativity Koelling-Harmon Dispersion off
REM Cut-off 340.0000 eV Grid scale 1.7500 Gmax 16.5316 1/A FBSC none
REM MP grid 3 3 1 Offset 0.000 0.000 0.000 No. kpts 5 Spacing 0.07
REM Total runtime: 41554.8 s
REM Overall efficiency: 74.4 %
REM
REM
REM
REM compiler GCC version 4.9.2
REM options -cpp -iprefix /lustre/shared/ucl/apps/gcc/4.9.2/bin/../lib/gcc/x86_64-unknown-linux-gnu/4.9.2/ -mtune=corei7 -march=x86-64 -g -Og
REM COMMAND_LINE
REM seed -523001554 -841594331 -1311748210 -657568050 1658025734 -915269116 -824833218 -547209883 -721191522 1145322166 1507474675 -2089127491
REM
REM S 3|1.8|5|6|7|30:31:32(qc=5)
REM O 2|1.5|12|13|15|20:21(qc=5)
REM Li 1|1.3|8|9|10|10U:20(qc=5)
REM Fe 3|2.2|2.0|1.0|8|9|10|40:41:32(qc=5)
REM F 2|1.6|10|12|13|20:21(qc=5)
REM 
CELL 1.54180    5.70706    4.99585   16.33602   77.42066   77.98741   85.63866
LATT -1
SFAC Li O  F  S  Fe 
Li     1  0.3591630000000 -0.1432280000000  0.2698630000000 1.0  -0.02
Li     1 -0.3591630000000  0.1432280000000 -0.2698630000000 1.0  -0.02
Li     1  0.2984000000000 -0.3155340000000 -0.0178900000000 1.0  -0.01
Li     1 -0.2984000000000  0.3155340000000  0.0178900000000 1.0  -0.01
O      2 -0.2415520000000 -0.0847240000000 -0.3653630000000 1.0   0.05
O      2 -0.1221330000000 -0.5350470000000 -0.2840810000000 1.0   0.06
O      2  0.0732320000000 -0.3747480000000 -0.4344260000000 1.0   0.05
O      2 -0.3443950000000 -0.5226550000000 -0.3943240000000 1.0   0.04
O      2  0.2415520000000  0.0847240000000  0.3653630000000 1.0   0.05
O      2  0.1221330000000  0.5350470000000  0.2840810000000 1.0   0.06
O      2 -0.0732320000000  0.3747480000000  0.4344260000000 1.0   0.05
O      2  0.3443950000000  0.5226550000000  0.3943240000000 1.0   0.04
O      2  0.3476610000000  0.2717700000000  0.0261420000000 1.0   0.01
O      2 -0.0768380000000  0.2911360000000  0.0969090000000 1.0   0.03
O      2  0.2208120000000  0.1247600000000  0.1825860000000 1.0   0.02
O      2  0.1321690000000 -0.1584580000000  0.0847920000000 1.0   0.04
O      2 -0.3476610000000 -0.2717700000000 -0.0261420000000 1.0   0.01
O      2  0.0768380000000 -0.2911360000000 -0.0969090000000 1.0   0.03
O      2 -0.2208120000000 -0.1247600000000 -0.1825860000000 1.0   0.02
O      2 -0.1321690000000  0.1584580000000 -0.0847920000000 1.0   0.04
F      3 -0.3659990000000 -0.2882950000000  0.2083780000000 1.0   0.13
F      3  0.3659990000000  0.2882950000000 -0.2083780000000 1.0   0.13
F      3  0.3391500000000  0.0970360000000 -0.4446240000000 1.0   0.17
F      3 -0.3391500000000 -0.0970360000000  0.4446240000000 1.0   0.17
S      4 -0.1561510000000 -0.3753260000000 -0.3714790000000 1.0   0.02
S      4  0.1561510000000  0.3753260000000  0.3714790000000 1.0   0.02
S      4  0.1601950000000  0.1295560000000  0.0977660000000 1.0   0.00
S      4 -0.1601950000000 -0.1295560000000 -0.0977660000000 1.0   0.00
Fe     5  0.0582500000000  0.4473870000000 -0.1902950000000 1.0   3.68
Fe     5 -0.0582500000000 -0.4473870000000  0.1902950000000 1.0   3.68
Fe     5 -0.3313710000000  0.1857880000000 -0.4763490000000 1.0   3.72
Fe     5  0.3313710000000 -0.1857880000000  0.4763490000000 1.0   3.72
END
