TITL 4LiFeSO4F-200804-072014-90b570 0.2680 498.514392 -1.51303923E+004 16.0000 16.3224 32 (P-1) n - 1
REM
REM Run started: Wed, 05 Aug 2020 09:01:46 +0100 in /lustre/scratch/uccabz1/launch_tmp/launcher_2020-08-04-06-20-09-539719
REM CASTEP 20.1 from code version af48c487+ pr-geom-scf-spinfix Tue Jun 2 15:39:59 2020 +0100
REM Functional Perdew Burke Ernzerhof Relativity Koelling-Harmon Dispersion off
REM Cut-off 340.0000 eV Grid scale 1.7500 Gmax 16.5316 1/A FBSC none
REM MP grid 3 3 2 Offset 0.000 0.000 0.000 No. kpts 9 Spacing 0.07
REM Total runtime: 104165 s
REM Overall efficiency: 98.3846 %
REM
REM 4LiFeSO4F.cell (79c870615ff1d88195b1fe3fe805288c)
REM
REM compiler GCC version 4.9.2
REM options -cpp -iprefix /lustre/shared/ucl/apps/gcc/4.9.2/bin/../lib/gcc/x86_64-unknown-linux-gnu/4.9.2/ -mtune=corei7 -march=x86-64 -g -Og
REM COMMAND_LINE
REM seed -605250805 1379605257 -217602500 1021169286 873437708 -501985700 514592830 -1992812867 271623094 58835103 2142554969 510802635
REM
REM S 3|1.8|5|6|7|30:31:32(qc=5)
REM O 2|1.5|12|13|15|20:21(qc=5)
REM Li 1|1.3|8|9|10|10U:20(qc=5)
REM Fe 3|2.2|2.0|1.0|8|9|10|40:41:32(qc=5)
REM F 2|1.6|10|12|13|20:21(qc=5)
REM 
CELL 1.54180    7.96124    9.03220    9.53647   58.55519   70.71599   58.75671
LATT -1
SFAC Li O  F  S  Fe 
Li     1 -0.0642250000000  0.2918050000000 -0.0165570000000 1.0  -0.01
Li     1  0.0642250000000 -0.2918050000000  0.0165570000000 1.0  -0.01
Li     1 -0.0049580000000 -0.0762460000000  0.2938190000000 1.0   0.00
Li     1  0.0049580000000  0.0762460000000 -0.2938190000000 1.0   0.00
O      2  0.2556020000000  0.3452530000000 -0.3443060000000 1.0   0.07
O      2  0.2287870000000  0.2164620000000 -0.0395440000000 1.0   0.05
O      2  0.4666840000000  0.0112920000000 -0.1808010000000 1.0   0.06
O      2  0.1012390000000  0.1269510000000 -0.1630250000000 1.0   0.02
O      2 -0.2556020000000 -0.3452530000000  0.3443060000000 1.0   0.07
O      2 -0.2287870000000 -0.2164620000000  0.0395440000000 1.0   0.05
O      2 -0.4666840000000 -0.0112920000000  0.1808010000000 1.0   0.06
O      2 -0.1012390000000 -0.1269510000000  0.1630250000000 1.0   0.02
O      2  0.4019580000000 -0.2906000000000 -0.1139150000000 1.0   0.05
O      2  0.4408590000000 -0.2354050000000 -0.4082910000000 1.0   0.06
O      2  0.1254550000000 -0.2036400000000 -0.2318470000000 1.0   0.02
O      2  0.4179330000000 -0.5223360000000 -0.1893570000000 1.0   0.08
O      2 -0.4019580000000  0.2906000000000  0.1139150000000 1.0   0.05
O      2 -0.4408590000000  0.2354050000000  0.4082910000000 1.0   0.06
O      2 -0.1254550000000  0.2036400000000  0.2318470000000 1.0   0.02
O      2 -0.4179330000000  0.5223360000000  0.1893570000000 1.0   0.08
F      3  0.2241350000000 -0.2628060000000  0.3696170000000 1.0   0.11
F      3 -0.2241350000000  0.2628060000000 -0.3696170000000 1.0   0.11
F      3 -0.1700880000000 -0.4493780000000 -0.1266820000000 1.0   0.15
F      3  0.1700880000000  0.4493780000000  0.1266820000000 1.0   0.15
S      4  0.2667640000000  0.1727560000000 -0.1834070000000 1.0   0.02
S      4 -0.2667640000000 -0.1727560000000  0.1834070000000 1.0   0.02
S      4  0.3460030000000 -0.3097530000000 -0.2366350000000 1.0   0.01
S      4 -0.3460030000000  0.3097530000000  0.2366350000000 1.0   0.01
Fe     5 -0.3862910000000 -0.2729700000000 -0.0523070000000 1.0   3.82
Fe     5  0.3862910000000  0.2729700000000  0.0523070000000 1.0   3.82
Fe     5  0.3975870000000 -0.5238540000000  0.4542610000000 1.0   3.49
Fe     5 -0.3975870000000  0.5238540000000 -0.4542610000000 1.0   3.49
END
