TITL 4LiFeSO4F-200818-003953-8135b3 0.1707 510.200061 -1.51303750E+004 16.0000 16.2944 32 (P21) n - 1
REM
REM Run started: Tue, 18 Aug 2020 12:48:58 +0100 in /scratch/scratch/uccabz1/launch_tmp/launcher_2020-08-17-23-39-49-658200
REM CASTEP 19.11| from code version Version unavailable
REM Functional Perdew Burke Ernzerhof Relativity Koelling-Harmon Dispersion off
REM Cut-off 340.0000 eV Grid scale 1.7500 Gmax 16.5316 1/A FBSC none
REM MP grid 4 3 1 Offset 0.000 0.000 0.000 No. kpts 6 Spacing 0.07
REM Total runtime: 50611.9 s
REM Overall efficiency: 74.8333 %
REM
REM 4LiFeSO4F.cell (79c870615ff1d88195b1fe3fe805288c)
REM
REM compiler GCC version 4.9.2
REM options -cpp -iprefix /scratch/UCL/applications/gcc/4.9.2/bin/../lib/gcc/x86_64-unknown-linux-gnu/4.9.2/ -mtune=corei7 -march=x86-64 -g -O2
REM COMMAND_LINE
REM seed -834075846 1622562995 709327960 -2107246595 -794307128 1972399854 -303723849 931920846 1706619154 -1063709786 -86774730 -1331055237
REM
REM S 3|1.8|5|6|7|30:31:32(qc=5)
REM O 2|1.5|12|13|15|20:21(qc=5)
REM Li 1|1.3|8|9|10|10U:20(qc=5)
REM Fe 3|2.2|2.0|1.0|8|9|10|40:41:32(qc=5)
REM F 2|1.6|10|12|13|20:21(qc=5)
REM 
CELL 1.54180    5.48543    7.03361   17.78511   90.00000   90.00000  131.96754
LATT -1
SFAC Li O  F  S  Fe 
Li     1  0.1252010000000  0.4952840000000  0.1704630000000 1.0  -0.02
Li     1 -0.1252010000000 -0.4952840000000 -0.3295370000000 1.0  -0.02
Li     1  0.2038330000000 -0.1875160000000  0.4439670000000 1.0  -0.02
Li     1 -0.2038330000000  0.1875160000000 -0.0560330000000 1.0  -0.02
O      2  0.6968180000000  0.2733890000000  0.1338190000000 1.0   0.01
O      2  0.4515720000000 -0.0106610000000  0.0239300000000 1.0   0.04
O      2  0.0999570000000 -0.1137740000000  0.1294840000000 1.0   0.05
O      2  0.5082140000000 -0.1590900000000  0.1438500000000 1.0   0.03
O      2 -0.6968180000000 -0.2733890000000 -0.3661810000000 1.0   0.01
O      2 -0.4515720000000  0.0106610000000 -0.4760700000000 1.0   0.04
O      2 -0.0999570000000  0.1137740000000 -0.3705160000000 1.0   0.05
O      2 -0.5082140000000  0.1590900000000 -0.3561500000000 1.0   0.03
O      2  0.4594190000000  0.1094030000000 -0.1284680000000 1.0   0.04
O      2  0.2114930000000  0.2534700000000 -0.1965590000000 1.0   0.06
O      2  0.5739280000000  0.5052410000000 -0.0912410000000 1.0   0.05
O      2  0.0361790000000  0.0712220000000 -0.0680170000000 1.0   0.05
O      2 -0.4594190000000 -0.1094030000000  0.3715320000000 1.0   0.04
O      2 -0.2114930000000 -0.2534700000000  0.3034410000000 1.0   0.06
O      2 -0.5739280000000 -0.5052410000000  0.4087590000000 1.0   0.05
O      2 -0.0361790000000 -0.0712220000000  0.4319830000000 1.0   0.05
F      3  0.1929900000000  0.3162820000000  0.2202830000000 1.0   0.13
F      3 -0.1929900000000 -0.3162820000000 -0.2797170000000 1.0   0.13
F      3  0.9179420000000  0.4696820000000 -0.5551850000000 1.0   0.13
F      3 -0.9179420000000 -0.4696820000000 -0.0551850000000 1.0   0.13
S      4  0.4441310000000  0.0036530000000  0.1089540000000 1.0   0.01
S      4 -0.4441310000000 -0.0036530000000 -0.3910460000000 1.0   0.01
S      4  0.3279680000000  0.2411510000000 -0.1212450000000 1.0   0.02
S      4 -0.3279680000000 -0.2411510000000  0.3787550000000 1.0   0.02
Fe     5 -0.0454750000000  0.2238890000000  0.4470420000000 1.0   3.69
Fe     5  0.0454750000000 -0.2238890000000 -0.0529580000000 1.0   3.69
Fe     5 -0.0761450000000 -0.0378350000000  0.2145430000000 1.0   3.72
Fe     5  0.0761450000000  0.0378350000000 -0.2854570000000 1.0   3.72
END
