TITL 4LiFeSO4F-200818-112113-273d81 -0.0129 435.338655 -1.51176296E+004 20.0000 20.1688 32 (Pnc2) n - 1
REM
REM Run started: Tue, 18 Aug 2020 14:52:14 +0100 in /scratch/scratch/uccabz1/launch_tmp/launcher_2020-08-18-10-21-09-688883
REM CASTEP 19.11| from code version Version unavailable
REM Functional Perdew Burke Ernzerhof Relativity Koelling-Harmon Dispersion off
REM Cut-off 340.0000 eV Grid scale 1.7500 Gmax 16.5316 1/A FBSC none
REM MP grid 2 2 3 Offset 0.000 0.000 0.000 No. kpts 2 Spacing 0.07
REM Total runtime: 13685.5 s
REM Overall efficiency: 64.9 %
REM
REM 4LiFeSO4F.cell (79c870615ff1d88195b1fe3fe805288c)
REM
REM compiler GCC version 4.9.2
REM options -cpp -iprefix /scratch/UCL/applications/gcc/4.9.2/bin/../lib/gcc/x86_64-unknown-linux-gnu/4.9.2/ -mtune=corei7 -march=x86-64 -g -O2
REM COMMAND_LINE
REM seed -53857732 -1147738621 -1038343991 -1012218918 1490602093 -123653030 1335683541 985461785 1858941429 274613412 -2022443298 735066542
REM
REM S 3|1.8|5|6|7|30:31:32(qc=5)
REM O 2|1.5|12|13|15|20:21(qc=5)
REM Li 1|1.3|8|9|10|10U:20(qc=5)
REM Fe 3|2.2|2.0|1.0|8|9|10|40:41:32(qc=5)
REM F 2|1.6|10|12|13|20:21(qc=5)
REM 
CELL 1.54180    7.92616    7.89421    6.95754   90.00000   90.00000   90.00000
LATT -1
SFAC Li O  F  S  Fe 
Li     1 -0.3292100000000 -0.1598750000000  0.1617470000000 1.0  -0.04
Li     1  0.3292100000000  0.1598750000000  0.1617470000000 1.0  -0.04
Li     1 -0.1707900000000 -0.1598750000000 -0.3382530000000 1.0  -0.04
Li     1  0.1707900000000  0.1598750000000 -0.3382530000000 1.0  -0.04
O      2  0.1802170000000 -0.1738360000000 -0.0087250000000 1.0   0.11
O      2  0.1537370000000 -0.3890440000000  0.2324600000000 1.0   0.22
O      2 -0.1133660000000 -0.2635860000000  0.0684050000000 1.0   0.03
O      2 -0.1802170000000  0.1738360000000 -0.0087250000000 1.0   0.11
O      2 -0.1537370000000  0.3890440000000  0.2324600000000 1.0   0.22
O      2  0.1133660000000  0.2635860000000  0.0684050000000 1.0   0.03
O      2  0.3197830000000 -0.1738360000000 -0.5087250000000 1.0   0.11
O      2  0.3462630000000 -0.3890440000000 -0.2675400000000 1.0   0.22
O      2  0.6133660000000 -0.2635860000000 -0.4315950000000 1.0   0.03
O      2 -0.3197830000000  0.1738360000000 -0.5087250000000 1.0   0.11
O      2 -0.3462630000000  0.3890440000000 -0.2675400000000 1.0   0.22
O      2 -0.6133660000000  0.2635860000000 -0.4315950000000 1.0   0.03
O      2  0.5000000000000  0.0000000000000 -0.2501210000000 1.0   0.02
O      2 -0.0000000000000  0.0000000000000  0.2498790000000 1.0   0.02
O      2  0.5000000000000  0.0000000000000  0.1729330000000 1.0   1.19
O      2 -0.0000000000000  0.0000000000000 -0.3270670000000 1.0   1.19
F      3 -0.0681230000000 -0.3609950000000 -0.4329430000000 1.0   0.14
F      3  0.0681230000000  0.3609950000000 -0.4329430000000 1.0   0.14
F      3 -0.4318770000000 -0.3609950000000  0.0670570000000 1.0   0.14
F      3  0.4318770000000  0.3609950000000  0.0670570000000 1.0   0.14
S      4  0.0516960000000 -0.2063020000000  0.1505110000000 1.0   0.03
S      4 -0.0516960000000  0.2063020000000  0.1505110000000 1.0   0.03
S      4  0.4483040000000 -0.2063020000000 -0.3494890000000 1.0   0.03
S      4 -0.4483040000000  0.2063020000000 -0.3494890000000 1.0   0.03
Fe     5 -0.3240460000000 -0.6024650000000  0.0176090000000 1.0   3.91
Fe     5  0.3240460000000  0.6024650000000  0.0176090000000 1.0   3.91
Fe     5 -0.1759540000000 -0.6024650000000  0.5176090000000 1.0   3.91
Fe     5  0.1759540000000  0.6024650000000  0.5176090000000 1.0   3.91
END
