TITL 4LiFeSO4F-200804-055522-ca86b9 0.0164 464.270720 -1.51298140E+004 16.0000 16.4513 32 (Cm) n - 1
REM
REM Run started: Wed, 05 Aug 2020 05:49:45 +0100 in /lustre/scratch/uccabz1/launch_tmp/launcher_2020-08-04-17-30-00-066663
REM CASTEP 20.1 from code version af48c487+ pr-geom-scf-spinfix Tue Jun 2 15:39:59 2020 +0100
REM Functional Perdew Burke Ernzerhof Relativity Koelling-Harmon Dispersion off
REM Cut-off 340.0000 eV Grid scale 1.7500 Gmax 16.5316 1/A FBSC none
REM MP grid 2 2 3 Offset 0.000 0.000 0.000 No. kpts 6 Spacing 0.07
REM Total runtime: 45803.3 s
REM Overall efficiency: 83 %
REM
REM
REM
REM compiler GCC version 4.9.2
REM options -cpp -iprefix /lustre/shared/ucl/apps/gcc/4.9.2/bin/../lib/gcc/x86_64-unknown-linux-gnu/4.9.2/ -mtune=corei7 -march=x86-64 -g -Og
REM COMMAND_LINE
REM seed 1278706807 1299077635 837155231 -268888376 -676502103 109134369 1833385381 -700566588 -699105560 662459457 -617205880 -2138639885
REM
REM S 3|1.8|5|6|7|30:31:32(qc=5)
REM O 2|1.5|12|13|15|20:21(qc=5)
REM Li 1|1.3|8|9|10|10U:20(qc=5)
REM Fe 3|2.2|2.0|1.0|8|9|10|40:41:32(qc=5)
REM F 2|1.6|10|12|13|20:21(qc=5)
REM 
CELL 1.54180    7.65008    9.10138    8.16869  123.85474   98.78351   90.00000
LATT -1
SFAC Li O  F  S  Fe 
Li     1  0.2995860000000  0.5238600000000  0.0477200000000 1.0  -0.02
Li     1 -0.0608100000000  0.3649440000000 -0.2701130000000 1.0  -0.01
Li     1  0.3661040000000 -0.2719060000000  0.4561880000000 1.0  -0.01
Li     1 -0.2915100000000  0.1783450000000  0.3566900000000 1.0  -0.03
O      2 -0.0799510000000 -0.2183020000000  0.2480740000000 1.0   0.08
O      2  0.0488280000000 -0.1436760000000  0.0434780000000 1.0   0.07
O      2  0.2396210000000 -0.2358970000000  0.2323210000000 1.0   0.02
O      2  0.1187530000000  0.0534810000000  0.4134570000000 1.0   0.06
O      2 -0.0799510000000  0.4663760000000  0.2480740000000 1.0   0.08
O      2  0.0488280000000  0.1871540000000  0.0434780000000 1.0   0.07
O      2  0.2396210000000  0.4682180000000  0.2323210000000 1.0   0.02
O      2  0.1187530000000  0.3599770000000  0.4134570000000 1.0   0.06
O      2 -0.3025540000000 -0.2512000000000 -0.1828730000000 1.0   0.08
O      2 -0.2119380000000 -0.5511680000000 -0.4015970000000 1.0   0.01
O      2 -0.3915010000000 -0.4140330000000 -0.5479450000000 1.0   0.05
O      2 -0.5244840000000 -0.5098050000000 -0.3613310000000 1.0   0.05
O      2 -0.3025540000000  0.0683270000000 -0.1828730000000 1.0   0.08
O      2 -0.2119380000000  0.1495710000000 -0.4015970000000 1.0   0.01
O      2 -0.3915010000000 -0.1339120000000 -0.5479450000000 1.0   0.05
O      2 -0.5244840000000  0.1484740000000 -0.3613310000000 1.0   0.05
F      3 -0.4279920000000  0.2239220000000  0.1749020000000 1.0   0.15
F      3 -0.4279920000000 -0.0490200000000  0.1749020000000 1.0   0.15
F      3  0.3620090000000 -0.1386230000000 -0.2772460000000 1.0   0.12
F      3  0.1837890000000  0.3973200000000 -0.2053600000000 1.0   0.06
S      4  0.0845200000000 -0.1359320000000  0.2353070000000 1.0   0.02
S      4  0.0845200000000  0.3712400000000  0.2353070000000 1.0   0.02
S      4 -0.3577590000000 -0.4359710000000 -0.3761090000000 1.0   0.02
S      4 -0.3577590000000  0.0598620000000 -0.3761090000000 1.0   0.02
Fe     5 -0.1146270000000 -0.0308750000000 -0.0617490000000 1.0   3.46
Fe     5 -0.4598730000000 -0.0198750000000 -0.0397500000000 1.0   3.82
Fe     5 -0.2158810000000 -0.3256380000000  0.3487230000000 1.0   3.60
Fe     5  0.2978980000000  0.2726450000000  0.5452900000000 1.0   3.79
END
