TITL 4LiFeSO4F-200804-084331-4021b6 -0.0573 490.600690 -1.51318981E+004 16.0000 16.2640 32 (P21/c) n - 1
REM
REM Run started: Tue, 04 Aug 2020 15:14:17 +0100 in /lustre/scratch/uccabz1/launch_tmp/launcher_2020-08-04-07-43-29-237491
REM CASTEP 20.1 from code version af48c487+ pr-geom-scf-spinfix Tue Jun 2 15:39:59 2020 +0100
REM Functional Perdew Burke Ernzerhof Relativity Koelling-Harmon Dispersion off
REM Cut-off 340.0000 eV Grid scale 1.7500 Gmax 16.5316 1/A FBSC none
REM MP grid 3 2 2 Offset 0.000 0.000 0.000 No. kpts 4 Spacing 0.07
REM Total runtime: 23899 s
REM Overall efficiency: 75.3 %
REM
REM 4LiFeSO4F.cell (79c870615ff1d88195b1fe3fe805288c)
REM
REM compiler GCC version 4.9.2
REM options -cpp -iprefix /lustre/shared/ucl/apps/gcc/4.9.2/bin/../lib/gcc/x86_64-unknown-linux-gnu/4.9.2/ -mtune=corei7 -march=x86-64 -g -Og
REM COMMAND_LINE
REM seed 675383550 -1782836698 -1148165185 1965552143 -770847411 957519335 727861279 337200181 -284841283 -769989231 1592917152 -1337698569
REM
REM S 3|1.8|5|6|7|30:31:32(qc=5)
REM O 2|1.5|12|13|15|20:21(qc=5)
REM Li 1|1.3|8|9|10|10U:20(qc=5)
REM Fe 3|2.2|2.0|1.0|8|9|10|40:41:32(qc=5)
REM F 2|1.6|10|12|13|20:21(qc=5)
REM 
CELL 1.54180    5.10433   10.16257   10.64600   62.67038   90.00000   90.00000
LATT -1
SFAC Li O  F  S  Fe 
Li     1  0.4006900000000  0.1400140000000  0.4973170000000 1.0  -0.01
Li     1 -0.0993100000000  0.3599860000000 -0.4973170000000 1.0  -0.01
Li     1 -0.4006900000000 -0.1400140000000 -0.4973170000000 1.0  -0.01
Li     1  0.0993100000000 -0.3599860000000  0.4973170000000 1.0  -0.01
O      2  0.0737550000000  0.4619990000000 -0.1517900000000 1.0   0.08
O      2  0.1802370000000  0.2177870000000 -0.1311390000000 1.0   0.08
O      2  0.0854240000000  0.4241990000000 -0.3649900000000 1.0   0.01
O      2 -0.2690740000000  0.3162260000000 -0.1900460000000 1.0   0.07
O      2  0.5737550000000  0.0380010000000  0.1517900000000 1.0   0.08
O      2  0.6802370000000  0.2822130000000  0.1311390000000 1.0   0.08
O      2  0.5854240000000  0.0758010000000  0.3649900000000 1.0   0.01
O      2  0.2309260000000  0.1837740000000  0.1900460000000 1.0   0.07
O      2 -0.0737550000000 -0.4619990000000  0.1517900000000 1.0   0.08
O      2 -0.1802370000000 -0.2177870000000  0.1311390000000 1.0   0.08
O      2 -0.0854240000000 -0.4241990000000  0.3649900000000 1.0   0.01
O      2  0.2690740000000 -0.3162260000000  0.1900460000000 1.0   0.07
O      2 -0.5737550000000 -0.0380010000000 -0.1517900000000 1.0   0.08
O      2 -0.6802370000000 -0.2822130000000 -0.1311390000000 1.0   0.08
O      2 -0.5854240000000 -0.0758010000000 -0.3649900000000 1.0   0.01
O      2 -0.2309260000000 -0.1837740000000 -0.1900460000000 1.0   0.07
F      3 -0.1129650000000 -0.2710510000000 -0.4120010000000 1.0   0.08
F      3  0.3870350000000 -0.2289490000000  0.4120010000000 1.0   0.08
F      3  0.1129650000000  0.2710510000000  0.4120010000000 1.0   0.08
F      3 -0.3870350000000  0.2289490000000 -0.4120010000000 1.0   0.08
S      4  0.0175240000000  0.3549530000000 -0.2103950000000 1.0   0.02
S      4  0.5175240000000  0.1450470000000  0.2103950000000 1.0   0.02
S      4 -0.0175240000000 -0.3549530000000  0.2103950000000 1.0   0.02
S      4 -0.5175240000000 -0.1450470000000 -0.2103950000000 1.0   0.02
Fe     5 -0.0005120000000  0.3268800000000  0.2146330000000 1.0   3.68
Fe     5  0.4994880000000  0.1731200000000 -0.2146330000000 1.0   3.68
Fe     5  0.0005120000000 -0.3268800000000 -0.2146330000000 1.0   3.68
Fe     5 -0.4994880000000 -0.1731200000000  0.2146330000000 1.0   3.68
END
