TITL 4LiFeSO4F-200804-093731-b5870c 0.0821 476.754445 -1.51287182E+004 19.8027 19.8666 32 (Cm) n - 1
REM
REM Run started: Tue, 04 Aug 2020 15:46:33 +0100 in /lustre/scratch/uccabz1/launch_tmp/launcher_2020-08-04-08-37-16-511050
REM CASTEP 20.1 from code version af48c487+ pr-geom-scf-spinfix Tue Jun 2 15:39:59 2020 +0100
REM Functional Perdew Burke Ernzerhof Relativity Koelling-Harmon Dispersion off
REM Cut-off 340.0000 eV Grid scale 1.7500 Gmax 16.5316 1/A FBSC none
REM MP grid 2 2 2 Offset 0.000 0.000 0.000 No. kpts 3 Spacing 0.07
REM Total runtime: 24182.8 s
REM Overall efficiency: 76.1667 %
REM
REM 4LiFeSO4F.cell (79c870615ff1d88195b1fe3fe805288c)
REM
REM compiler GCC version 4.9.2
REM options -cpp -iprefix /lustre/shared/ucl/apps/gcc/4.9.2/bin/../lib/gcc/x86_64-unknown-linux-gnu/4.9.2/ -mtune=corei7 -march=x86-64 -g -Og
REM COMMAND_LINE
REM seed 231473538 1896015552 518317963 -1085023942 -1899691226 -780895872 -1304185845 1445576642 1241237253 -1098666957 1976389087 1674257311
REM
REM S 3|1.8|5|6|7|30:31:32(qc=5)
REM O 2|1.5|12|13|15|20:21(qc=5)
REM Li 1|1.3|8|9|10|10U:20(qc=5)
REM Fe 3|2.2|2.0|1.0|8|9|10|40:41:32(qc=5)
REM F 2|1.6|10|12|13|20:21(qc=5)
REM 
CELL 1.54180    7.70634    8.12536    8.12536  108.74679   94.81925   94.81925
LATT -1
SFAC Li O  F  S  Fe 
Li     1 -0.0382780000000 -0.0764120000000  0.1410590000000 1.0  -0.00
Li     1 -0.0382780000000  0.1410590000000 -0.0764120000000 1.0  -0.00
Li     1  0.3113420000000  0.2381000000000  0.0543240000000 1.0  -0.00
Li     1  0.3113420000000  0.0543240000000  0.2381000000000 1.0  -0.00
O      2 -0.2759500000000 -0.1047620000000  0.1684240000000 1.0   0.02
O      2 -0.5836100000000 -0.1632730000000  0.2206770000000 1.0   0.03
O      2 -0.3584840000000 -0.3167520000000  0.3162780000000 1.0   0.18
O      2 -0.4503960000000 -0.3902980000000  0.0053650000000 1.0   0.14
O      2 -0.2759500000000  0.1684240000000 -0.1047620000000 1.0   0.02
O      2 -0.5836100000000  0.2206770000000 -0.1632730000000 1.0   0.03
O      2 -0.3584840000000  0.3162780000000 -0.3167520000000 1.0   0.18
O      2 -0.4503960000000  0.0053650000000 -0.3902980000000 1.0   0.14
O      2 -0.0265560000000  0.1755580000000  0.6247360000000 1.0   0.21
O      2  0.1100150000000  0.0143380000000  0.3620970000000 1.0   0.05
O      2 -0.0294580000000 -0.1419460000000  0.5446540000000 1.0   0.24
O      2 -0.0265560000000  0.6247360000000  0.1755580000000 1.0   0.21
O      2  0.1100150000000  0.3620970000000  0.0143380000000 1.0   0.05
O      2 -0.0294580000000  0.5446540000000 -0.1419460000000 1.0   0.24
O      2 -0.2481820000000 -0.4409280000000 -0.4409280000000 1.0   0.62
O      2  0.4121590000000 -0.3789930000000 -0.3789930000000 1.0   0.91
F      3 -0.5619420000000  0.2414980000000  0.2414980000000 1.0   0.00
F      3  0.0212190000000 -0.5634300000000 -0.5634300000000 1.0   0.24
F      3  0.1098550000000  0.0388920000000  0.0388920000000 1.0   0.00
F      3 -0.3051440000000 -0.1867590000000 -0.1867590000000 1.0   0.27
S      4 -0.4185720000000 -0.2334180000000  0.1736140000000 1.0   0.01
S      4 -0.4185720000000  0.1736140000000 -0.2334180000000 1.0   0.01
S      4  0.0950860000000  0.0264830000000  0.5489120000000 1.0   0.06
S      4  0.0950860000000  0.5489120000000  0.0264830000000 1.0   0.06
Fe     5 -0.1061970000000 -0.3759560000000  0.3929550000000 1.0   3.99
Fe     5 -0.1061970000000  0.3929550000000 -0.3759560000000 1.0   3.99
Fe     5 -0.4154870000000 -0.2386710000000 -0.4337900000000 1.0   3.97
Fe     5 -0.4154870000000 -0.4337900000000 -0.2386710000000 1.0   3.97
END
