TITL 4LiFeSO4F-200818-081511-dacf33 0.0499 417.207341 -1.51314665E+004 16.0000 16.2328 32 (P-1) n - 1
REM
REM Run started: Wed, 19 Aug 2020 00:44:19 +0100 in /lustre/scratch/uccabz1/launch_tmp/launcher_2020-08-18-07-15-09-054711
REM CASTEP 20.1 from code version af48c487+ pr-geom-scf-spinfix Tue Jun 2 15:39:59 2020 +0100
REM Functional Perdew Burke Ernzerhof Relativity Koelling-Harmon Dispersion off
REM Cut-off 340.0000 eV Grid scale 1.7500 Gmax 16.5316 1/A FBSC none
REM MP grid 3 2 2 Offset 0.000 0.000 0.000 No. kpts 6 Spacing 0.07
REM Total runtime: 63631.4 s
REM Overall efficiency: 87.0769 %
REM
REM 4LiFeSO4F.cell (79c870615ff1d88195b1fe3fe805288c)
REM
REM compiler GCC version 4.9.2
REM options -cpp -iprefix /lustre/shared/ucl/apps/gcc/4.9.2/bin/../lib/gcc/x86_64-unknown-linux-gnu/4.9.2/ -mtune=corei7 -march=x86-64 -g -Og
REM COMMAND_LINE
REM seed 566820770 1482597013 367236586 2137617668 -288166020 1625499329 -1711622708 858974151 -1159224806 -1721976356 -105749902 719470412
REM
REM S 3|1.8|5|6|7|30:31:32(qc=5)
REM O 2|1.5|12|13|15|20:21(qc=5)
REM Li 1|1.3|8|9|10|10U:20(qc=5)
REM Fe 3|2.2|2.0|1.0|8|9|10|40:41:32(qc=5)
REM F 2|1.6|10|12|13|20:21(qc=5)
REM 
CELL 1.54180    5.17588   10.25205    8.54272   82.90469   89.58858  111.72065
LATT -1
SFAC Li O  F  S  Fe 
Li     1 -0.3228020000000 -0.3261420000000 -0.1866070000000 1.0  -0.02
Li     1  0.3228020000000  0.3261420000000  0.1866070000000 1.0  -0.02
Li     1  0.3505840000000  0.3204790000000 -0.2045210000000 1.0  -0.03
Li     1 -0.3505840000000 -0.3204790000000  0.2045210000000 1.0  -0.03
O      2 -0.0309140000000  0.3628370000000  0.1624820000000 1.0   0.04
O      2  0.0145570000000  0.3453920000000 -0.1190510000000 1.0   0.04
O      2 -0.4365630000000  0.3260160000000 -0.0038080000000 1.0   0.01
O      2 -0.2532060000000  0.1346830000000  0.0652660000000 1.0   0.06
O      2  0.0309140000000 -0.3628370000000 -0.1624820000000 1.0   0.04
O      2 -0.0145570000000 -0.3453920000000  0.1190510000000 1.0   0.04
O      2  0.4365630000000 -0.3260160000000  0.0038080000000 1.0   0.01
O      2  0.2532060000000 -0.1346830000000 -0.0652660000000 1.0   0.06
O      2 -0.2940180000000  0.1332390000000 -0.5658350000000 1.0   0.05
O      2 -0.4554810000000  0.1492660000000 -0.2996740000000 1.0   0.06
O      2 -0.1180320000000  0.3589400000000 -0.4591350000000 1.0   0.09
O      2  0.0328740000000  0.1671820000000 -0.3482730000000 1.0   0.03
O      2  0.2940180000000 -0.1332390000000  0.5658350000000 1.0   0.05
O      2  0.4554810000000 -0.1492660000000  0.2996740000000 1.0   0.06
O      2  0.1180320000000 -0.3589400000000  0.4591350000000 1.0   0.09
O      2 -0.0328740000000 -0.1671820000000  0.3482730000000 1.0   0.03
F      3  0.4773200000000  0.5166390000000 -0.2959110000000 1.0   0.08
F      3 -0.4773200000000 -0.5166390000000  0.2959110000000 1.0   0.08
F      3 -0.1945280000000 -0.1374520000000 -0.2617770000000 1.0   0.14
F      3  0.1945280000000  0.1374520000000  0.2617770000000 1.0   0.14
S      4 -0.1834650000000  0.2905810000000  0.0252970000000 1.0   0.01
S      4  0.1834650000000 -0.2905810000000 -0.0252970000000 1.0   0.01
S      4 -0.2076960000000  0.1949780000000 -0.4182470000000 1.0   0.02
S      4  0.2076960000000 -0.1949780000000  0.4182470000000 1.0   0.02
Fe     5  0.9078740000000  0.4853430000000  0.3212190000000 1.0   3.68
Fe     5 -0.9078740000000 -0.4853430000000 -0.3212190000000 1.0   3.68
Fe     5  0.1844180000000 -0.0211190000000 -0.2702400000000 1.0   3.76
Fe     5 -0.1844180000000  0.0211190000000  0.2702400000000 1.0   3.76
END
