TITL 4LiFeSO4F-200818-001213-8fec53 0.0510 568.625737 -1.51302717E+004 16.0000 16.1530 32 (Pna21) n - 1
REM
REM Run started: Tue, 18 Aug 2020 02:37:40 +0100 in /scratch/scratch/uccabz1/launch_tmp/launcher_2020-08-17-23-12-10-856913
REM CASTEP 19.11| from code version Version unavailable
REM Functional Perdew Burke Ernzerhof Relativity Koelling-Harmon Dispersion off
REM Cut-off 340.0000 eV Grid scale 1.7500 Gmax 16.5316 1/A FBSC none
REM MP grid 3 2 1 Offset 0.000 0.000 0.000 No. kpts 2 Spacing 0.07
REM Total runtime: 8859.89 s
REM Overall efficiency: 72.9091 %
REM
REM 4LiFeSO4F.cell (79c870615ff1d88195b1fe3fe805288c)
REM
REM compiler GCC version 4.9.2
REM options -cpp -iprefix /scratch/UCL/applications/gcc/4.9.2/bin/../lib/gcc/x86_64-unknown-linux-gnu/4.9.2/ -mtune=corei7 -march=x86-64 -g -O2
REM COMMAND_LINE
REM seed -1305836406 748965174 -1904597547 1237437926 -480047252 1011422545 345666257 643887896 -1038272783 424050189 212135665 2113002178
REM
REM S 3|1.8|5|6|7|30:31:32(qc=5)
REM O 2|1.5|12|13|15|20:21(qc=5)
REM Li 1|1.3|8|9|10|10U:20(qc=5)
REM Fe 3|2.2|2.0|1.0|8|9|10|40:41:32(qc=5)
REM F 2|1.6|10|12|13|20:21(qc=5)
REM 
CELL 1.54180    4.77805    7.63272   15.59183   90.00000   90.00000   90.00000
LATT -1
SFAC Li O  F  S  Fe 
Li     1 -0.1723590000000  0.1018450000000 -0.3729810000000 1.0  -0.01
Li     1  0.1723590000000 -0.3981550000000  0.3729810000000 1.0  -0.01
Li     1  0.6723590000000  0.1018450000000  0.1270190000000 1.0  -0.01
Li     1 -0.6723590000000 -0.3981550000000 -0.1270190000000 1.0  -0.01
O      2 -0.4490310000000 -0.2669450000000 -0.0414800000000 1.0   0.05
O      2 -0.2484310000000 -0.0000680000000 -0.1033910000000 1.0   0.08
O      2 -0.0168500000000 -0.2802690000000 -0.1260290000000 1.0   0.01
O      2 -0.0200870000000 -0.1432450000000  0.0196680000000 1.0   0.04
O      2  0.4490310000000  0.2330550000000  0.0414800000000 1.0   0.05
O      2  0.2484310000000  0.4999320000000  0.1033910000000 1.0   0.08
O      2  0.0168500000000  0.2197310000000  0.1260290000000 1.0   0.01
O      2  0.0200870000000  0.3567550000000 -0.0196680000000 1.0   0.04
O      2 -0.0509690000000 -0.2669450000000  0.4585200000000 1.0   0.05
O      2 -0.2515690000000 -0.0000680000000  0.3966090000000 1.0   0.08
O      2 -0.4831500000000 -0.2802690000000  0.3739710000000 1.0   0.01
O      2 -0.4799130000000 -0.1432450000000  0.5196680000000 1.0   0.04
O      2  0.0509690000000  0.2330550000000 -0.4585200000000 1.0   0.05
O      2  0.2515690000000  0.4999320000000 -0.3966090000000 1.0   0.08
O      2  0.4831500000000  0.2197310000000 -0.3739710000000 1.0   0.01
O      2  0.4799130000000  0.3567550000000 -0.5196680000000 1.0   0.04
F      3 -0.0100610000000  0.4042140000000  0.3508440000000 1.0   0.11
F      3  0.0100610000000 -0.0957860000000 -0.3508440000000 1.0   0.11
F      3  0.5100610000000  0.4042140000000 -0.1491560000000 1.0   0.11
F      3 -0.5100610000000 -0.0957860000000  0.1491560000000 1.0   0.11
S      4 -0.1747990000000 -0.1750640000000 -0.0631420000000 1.0   0.02
S      4  0.1747990000000  0.3249360000000  0.0631420000000 1.0   0.02
S      4 -0.3252010000000 -0.1750640000000  0.4368580000000 1.0   0.02
S      4  0.3252010000000  0.3249360000000 -0.4368580000000 1.0   0.02
Fe     5 -0.3269140000000  0.2414000000000 -0.0750650000000 1.0   3.70
Fe     5  0.3269140000000 -0.2586000000000  0.0750650000000 1.0   3.70
Fe     5 -0.1730860000000  0.2414000000000  0.4249350000000 1.0   3.70
Fe     5  0.1730860000000 -0.2586000000000 -0.4249350000000 1.0   3.70
END
