TITL 4LiFeSO4F-200818-003755-428878 -0.0164 401.402817 -1.51311776E+004 16.0000 16.2071 32 (P21) n - 1
REM
REM Run started: Tue, 18 Aug 2020 06:30:07 +0100 in /lustre/scratch/uccabz1/launch_tmp/launcher_2020-08-17-23-37-30-955265
REM CASTEP 20.1 from code version af48c487+ pr-geom-scf-spinfix Tue Jun 2 15:39:59 2020 +0100
REM Functional Perdew Burke Ernzerhof Relativity Koelling-Harmon Dispersion off
REM Cut-off 340.0000 eV Grid scale 1.7500 Gmax 16.5316 1/A FBSC none
REM MP grid 3 2 2 Offset 0.000 0.000 0.000 No. kpts 3 Spacing 0.07
REM Total runtime: 21315.3 s
REM Overall efficiency: 75.0909 %
REM
REM 4LiFeSO4F.cell (79c870615ff1d88195b1fe3fe805288c)
REM
REM compiler GCC version 4.9.2
REM options -cpp -iprefix /lustre/shared/ucl/apps/gcc/4.9.2/bin/../lib/gcc/x86_64-unknown-linux-gnu/4.9.2/ -mtune=corei7 -march=x86-64 -g -Og
REM COMMAND_LINE
REM seed -1556206445 -1094133234 -1100510940 -1668822156 -1017631012 -509461842 1491777048 -82002832 2126868541 703068350 -593135377 1861771690
REM
REM S 3|1.8|5|6|7|30:31:32(qc=5)
REM O 2|1.5|12|13|15|20:21(qc=5)
REM Li 1|1.3|8|9|10|10U:20(qc=5)
REM Fe 3|2.2|2.0|1.0|8|9|10|40:41:32(qc=5)
REM F 2|1.6|10|12|13|20:21(qc=5)
REM 
CELL 1.54180    5.10748    8.46452    9.85094   90.00000   90.00000  109.51982
LATT -1
SFAC Li O  F  S  Fe 
Li     1 -0.1288090000000 -0.0545290000000 -0.3796220000000 1.0  -0.02
Li     1  0.1288090000000  0.0545290000000  0.1203780000000 1.0  -0.02
Li     1 -0.1669520000000 -0.4098250000000 -0.1748190000000 1.0  -0.03
Li     1  0.1669520000000  0.4098250000000  0.3251810000000 1.0  -0.03
O      2 -0.5118580000000  0.0337710000000 -0.0911530000000 1.0   0.06
O      2 -0.3438960000000  0.3332280000000 -0.0602190000000 1.0   0.04
O      2 -0.0139290000000  0.1770360000000 -0.0227260000000 1.0   0.03
O      2 -0.3996750000000  0.1426670000000  0.1374240000000 1.0   0.04
O      2  0.5118580000000 -0.0337710000000 -0.5911530000000 1.0   0.06
O      2  0.3438960000000 -0.3332280000000 -0.5602190000000 1.0   0.04
O      2  0.0139290000000 -0.1770360000000 -0.5227260000000 1.0   0.03
O      2  0.3996750000000 -0.1426670000000 -0.3625760000000 1.0   0.04
O      2  0.5053480000000 -0.2468540000000  0.1359360000000 1.0   0.05
O      2  0.1427800000000 -0.3110790000000 -0.0361160000000 1.0   0.06
O      2  0.0682370000000 -0.1851430000000  0.1783940000000 1.0   0.04
O      2  0.0595960000000 -0.4769760000000  0.1750610000000 1.0   0.01
O      2 -0.5053480000000  0.2468540000000 -0.3640640000000 1.0   0.05
O      2 -0.1427800000000  0.3110790000000 -0.5361160000000 1.0   0.06
O      2 -0.0682370000000  0.1851430000000 -0.3216060000000 1.0   0.04
O      2 -0.0595960000000  0.4769760000000 -0.3249390000000 1.0   0.01
F      3 -0.1566060000000 -0.1746480000000 -0.2177950000000 1.0   0.09
F      3  0.1566060000000  0.1746480000000  0.2822050000000 1.0   0.09
F      3 -0.4434390000000  0.4673770000000  0.3170130000000 1.0   0.12
F      3  0.4434390000000 -0.4673770000000 -0.1829870000000 1.0   0.12
S      4 -0.3126280000000  0.1743040000000 -0.0089010000000 1.0   0.02
S      4  0.3126280000000 -0.1743040000000 -0.5089010000000 1.0   0.02
S      4  0.1947250000000 -0.3088160000000  0.1167800000000 1.0   0.01
S      4 -0.1947250000000  0.3088160000000 -0.3832200000000 1.0   0.01
Fe     5  0.2793850000000  0.2904430000000 -0.1893410000000 1.0   3.74
Fe     5 -0.2793850000000 -0.2904430000000  0.3106590000000 1.0   3.74
Fe     5  0.5359340000000  0.2018530000000  0.3387580000000 1.0   3.76
Fe     5 -0.5359340000000 -0.2018530000000 -0.1612420000000 1.0   3.76
END
