TITL 4LiFeSO4F-200804-084928-1a2484 0.1047 457.115395 -1.51306267E+004 16.0000 16.2094 32 (Pc) n - 1
REM
REM Run started: Tue, 04 Aug 2020 23:56:47 +0100 in /lustre/scratch/uccabz1/launch_tmp/launcher_2020-08-04-07-49-25-699993
REM CASTEP 20.1 from code version af48c487+ pr-geom-scf-spinfix Tue Jun 2 15:39:59 2020 +0100
REM Functional Perdew Burke Ernzerhof Relativity Koelling-Harmon Dispersion off
REM Cut-off 340.0000 eV Grid scale 1.7500 Gmax 16.5316 1/A FBSC none
REM MP grid 3 2 2 Offset 0.000 0.000 0.000 No. kpts 4 Spacing 0.07
REM Total runtime: 59150.9 s
REM Overall efficiency: 71.9167 %
REM
REM 4LiFeSO4F.cell (79c870615ff1d88195b1fe3fe805288c)
REM
REM compiler GCC version 4.9.2
REM options -cpp -iprefix /lustre/shared/ucl/apps/gcc/4.9.2/bin/../lib/gcc/x86_64-unknown-linux-gnu/4.9.2/ -mtune=corei7 -march=x86-64 -g -Og
REM COMMAND_LINE
REM seed 796244415 947307105 -458799646 96006845 -995123186 -1878525417 24736162 -1910111946 1661913913 -230152542 -874132194 -1250429950
REM
REM S 3|1.8|5|6|7|30:31:32(qc=5)
REM O 2|1.5|12|13|15|20:21(qc=5)
REM Li 1|1.3|8|9|10|10U:20(qc=5)
REM Fe 3|2.2|2.0|1.0|8|9|10|40:41:32(qc=5)
REM F 2|1.6|10|12|13|20:21(qc=5)
REM 
CELL 1.54180    4.94313    8.55739   10.89097   97.14307   90.00000   90.00000
LATT -1
SFAC Li O  F  S  Fe 
Li     1 -0.2893380000000 -0.3847490000000  0.1236730000000 1.0  -0.01
Li     1  0.2893380000000  0.1152510000000 -0.3763270000000 1.0  -0.01
Li     1  0.1425800000000  0.2825220000000  0.0581140000000 1.0  -0.02
Li     1 -0.1425800000000 -0.2174780000000  0.5581140000000 1.0  -0.02
O      2  0.1593320000000 -0.0929780000000 -0.3517270000000 1.0   0.01
O      2  0.5738310000000 -0.2297260000000 -0.2910320000000 1.0   0.04
O      2  0.1222900000000 -0.3501040000000 -0.2773750000000 1.0   0.05
O      2  0.2542360000000 -0.1190960000000 -0.1318750000000 1.0   0.06
O      2 -0.1593320000000  0.4070220000000  0.1482730000000 1.0   0.01
O      2 -0.5738310000000  0.2702740000000  0.2089680000000 1.0   0.04
O      2 -0.1222900000000  0.1498960000000  0.2226250000000 1.0   0.05
O      2 -0.2542360000000  0.3809040000000  0.3681250000000 1.0   0.06
O      2 -0.2303080000000  0.1209950000000 -0.0643270000000 1.0   0.08
O      2 -0.4272780000000  0.1619340000000 -0.2656400000000 1.0   0.01
O      2 -0.1728620000000  0.3724200000000 -0.1404740000000 1.0   0.06
O      2 -0.6242250000000  0.2977820000000 -0.0735380000000 1.0   0.01
O      2  0.2303080000000 -0.3790050000000  0.4356730000000 1.0   0.08
O      2  0.4272780000000 -0.3380660000000  0.2343600000000 1.0   0.01
O      2  0.1728620000000 -0.1275800000000  0.3595260000000 1.0   0.06
O      2  0.6242250000000 -0.2022180000000  0.4264620000000 1.0   0.01
F      3 -0.3695640000000  0.4603730000000 -0.3782340000000 1.0   0.14
F      3  0.3695640000000 -0.0396270000000  0.1217660000000 1.0   0.14
F      3  0.2816920000000  0.2027720000000  0.4680720000000 1.0   0.09
F      3 -0.2816920000000 -0.2972280000000 -0.0319280000000 1.0   0.09
S      4  0.2765980000000 -0.1962400000000 -0.2632450000000 1.0   0.01
S      4 -0.2765980000000  0.3037600000000  0.2367550000000 1.0   0.01
S      4 -0.3737410000000  0.2387710000000 -0.1384350000000 1.0   0.01
S      4  0.3737410000000 -0.2612290000000  0.3615650000000 1.0   0.01
Fe     5 -0.5956430000000  0.4252710000000 -0.5291450000000 1.0   3.75
Fe     5  0.5956430000000 -0.0747290000000 -0.0291450000000 1.0   3.75
Fe     5  0.2437420000000  0.0684530000000  0.2820070000000 1.0   3.72
Fe     5 -0.2437420000000 -0.4315470000000 -0.2179930000000 1.0   3.72
END
