TITL 4LiFeSO4F-200818-010905-999cc2 -0.0585 467.183960 -1.51310740E+004 15.9996 16.2961 32 (Cm) n - 1
REM
REM Run started: Wed, 19 Aug 2020 21:15:30 +0100 in /lustre/scratch/uccabz1/launch_tmp/launcher_2020-08-19-18-48-52-506388
REM CASTEP 20.1 from code version af48c487+ pr-geom-scf-spinfix Tue Jun 2 15:39:59 2020 +0100
REM Functional Perdew Burke Ernzerhof Relativity Koelling-Harmon Dispersion off
REM Cut-off 340.0000 eV Grid scale 1.7500 Gmax 16.5316 1/A FBSC none
REM MP grid 3 2 2 Offset 0.000 0.000 0.000 No. kpts 5 Spacing 0.07
REM Total runtime: 14577.5 s
REM Overall efficiency: 66 %
REM
REM
REM
REM compiler GCC version 4.9.2
REM options -cpp -iprefix /lustre/shared/ucl/apps/gcc/4.9.2/bin/../lib/gcc/x86_64-unknown-linux-gnu/4.9.2/ -mtune=corei7 -march=x86-64 -g -Og
REM COMMAND_LINE
REM seed -397443546 -2092418194 -1443858381 802664444 -2004768882 -749436621 -1579207337 -1729378434 -1442477635 -1104982409 -508651668 162923335
REM
REM S 3|1.8|5|6|7|30:31:32(qc=5)
REM O 2|1.5|12|13|15|20:21(qc=5)
REM Li 1|1.3|8|9|10|10U:20(qc=5)
REM Fe 3|2.2|2.0|1.0|8|9|10|40:41:32(qc=5)
REM F 2|1.6|10|12|13|20:21(qc=5)
REM 
CELL 1.54180    8.96380    9.48624    9.48624   74.96550   50.57942   50.57942
LATT -1
SFAC Li O  F  S  Fe 
Li     1  0.1428400000000 -0.6295400000000 -0.3978470000000 1.0  -0.02
Li     1  0.1428400000000 -0.3978470000000 -0.6295400000000 1.0  -0.02
Li     1  0.3412950000000 -0.3143270000000 -0.0254740000000 1.0  -0.01
Li     1  0.3412950000000 -0.0254740000000 -0.3143270000000 1.0  -0.01
O      2  0.3139140000000 -0.2782450000000  0.3426490000000 1.0   0.07
O      2  0.3447730000000 -0.1628350000000  0.0674090000000 1.0   0.01
O      2  0.3450730000000 -0.0209280000000  0.2492640000000 1.0   0.07
O      2 -0.0344560000000  0.0332730000000  0.3940820000000 1.0   0.08
O      2  0.3139140000000  0.3426490000000 -0.2782450000000 1.0   0.07
O      2  0.3447730000000  0.0674090000000 -0.1628350000000 1.0   0.01
O      2  0.3450730000000  0.2492640000000 -0.0209280000000 1.0   0.07
O      2 -0.0344560000000  0.3940820000000  0.0332730000000 1.0   0.08
O      2 -0.3152030000000 -0.2693080000000  0.3744820000000 1.0   0.05
O      2  0.0454810000000 -0.2812260000000  0.2133040000000 1.0   0.01
O      2 -0.3866110000000  0.0122110000000  0.4282920000000 1.0   0.05
O      2 -0.2093670000000 -0.1134430000000  0.1163880000000 1.0   0.06
O      2 -0.3152030000000  0.3744820000000 -0.2693080000000 1.0   0.05
O      2  0.0454810000000  0.2133040000000 -0.2812260000000 1.0   0.01
O      2 -0.3866110000000  0.4282920000000  0.0122110000000 1.0   0.05
O      2 -0.2093670000000  0.1163880000000 -0.1134430000000 1.0   0.06
F      3  0.3805960000000 -0.2422050000000 -0.2422050000000 1.0   0.11
F      3 -0.0532150000000 -0.4706830000000 -0.4706830000000 1.0   0.06
F      3 -0.3393600000000  0.4270750000000  0.4270750000000 1.0   0.12
F      3  0.3984680000000  0.3862800000000  0.3862800000000 1.0   0.08
S      4  0.2458460000000 -0.1072370000000  0.2569140000000 1.0   0.02
S      4  0.2458460000000  0.2569140000000 -0.1072370000000 1.0   0.02
S      4 -0.2140250000000 -0.1647180000000  0.2810240000000 1.0   0.02
S      4 -0.2140250000000  0.2810240000000 -0.1647180000000 1.0   0.02
Fe     5 -0.3563660000000  0.2084220000000  0.4491090000000 1.0   3.68
Fe     5 -0.3563660000000  0.4491090000000  0.2084220000000 1.0   3.68
Fe     5 -0.3021210000000 -0.4546050000000 -0.4546050000000 1.0   3.84
Fe     5 -0.4469670000000  0.0568850000000  0.0568850000000 1.0   3.63
END
