TITL 4LiFeSO4F-200818-080233-a9e87d 0.0317 444.953175 -1.51307355E+004 16.0000 16.2497 32 (P-1) n - 1
REM
REM Run started: Wed, 19 Aug 2020 10:34:26 +0100 in /lustre/scratch/uccabz1/launch_tmp/launcher_2020-08-18-07-02-21-600221
REM CASTEP 20.1 from code version af48c487+ pr-geom-scf-spinfix Tue Jun 2 15:39:59 2020 +0100
REM Functional Perdew Burke Ernzerhof Relativity Koelling-Harmon Dispersion off
REM Cut-off 340.0000 eV Grid scale 1.7500 Gmax 16.5316 1/A FBSC none
REM MP grid 2 3 2 Offset 0.000 0.000 0.000 No. kpts 6 Spacing 0.07
REM Total runtime: 104188 s
REM Overall efficiency: 81 %
REM
REM 4LiFeSO4F.cell (79c870615ff1d88195b1fe3fe805288c)
REM
REM compiler GCC version 4.9.2
REM options -cpp -iprefix /lustre/shared/ucl/apps/gcc/4.9.2/bin/../lib/gcc/x86_64-unknown-linux-gnu/4.9.2/ -mtune=corei7 -march=x86-64 -g -Og
REM COMMAND_LINE
REM seed 527475149 1419122891 1221686730 780911635 -904314018 1701830829 -1694458849 -750755522 2064486897 2045540996 -824304938 -752800918
REM
REM S 3|1.8|5|6|7|30:31:32(qc=5)
REM O 2|1.5|12|13|15|20:21(qc=5)
REM Li 1|1.3|8|9|10|10U:20(qc=5)
REM Fe 3|2.2|2.0|1.0|8|9|10|40:41:32(qc=5)
REM F 2|1.6|10|12|13|20:21(qc=5)
REM 
CELL 1.54180    7.80342    6.42584    9.77842  102.79327  101.28721  104.97445
LATT -1
SFAC Li O  F  S  Fe 
Li     1  0.1755860000000 -0.0220560000000 -0.1054260000000 1.0  -0.01
Li     1 -0.1755860000000  0.0220560000000  0.1054260000000 1.0  -0.01
Li     1  0.0700120000000 -0.4494810000000  0.3122530000000 1.0  -0.02
Li     1 -0.0700120000000  0.4494810000000 -0.3122530000000 1.0  -0.02
O      2  0.1211580000000  0.3250360000000 -0.3621950000000 1.0   0.07
O      2  0.4603330000000  0.4740660000000 -0.2965890000000 1.0   0.05
O      2  0.2896340000000  0.0633170000000 -0.3959300000000 1.0   0.09
O      2  0.3105230000000  0.2672240000000 -0.1433870000000 1.0   0.02
O      2 -0.1211580000000 -0.3250360000000  0.3621950000000 1.0   0.07
O      2 -0.4603330000000 -0.4740660000000  0.2965890000000 1.0   0.05
O      2 -0.2896340000000 -0.0633170000000  0.3959300000000 1.0   0.09
O      2 -0.3105230000000 -0.2672240000000  0.1433870000000 1.0   0.02
O      2  0.1957170000000  0.0939010000000  0.0989230000000 1.0   0.02
O      2  0.3840530000000  0.1137050000000  0.3379810000000 1.0   0.07
O      2  0.1503030000000 -0.2423890000000  0.1870500000000 1.0   0.05
O      2  0.0572640000000  0.0801540000000  0.3023300000000 1.0   0.05
O      2 -0.1957170000000 -0.0939010000000 -0.0989230000000 1.0   0.02
O      2 -0.3840530000000 -0.1137050000000 -0.3379810000000 1.0   0.07
O      2 -0.1503030000000  0.2423890000000 -0.1870500000000 1.0   0.05
O      2 -0.0572640000000 -0.0801540000000 -0.3023300000000 1.0   0.05
F      3 -0.3080750000000 -0.6474070000000 -0.4449220000000 1.0   0.10
F      3  0.3080750000000  0.6474070000000  0.4449220000000 1.0   0.10
F      3  0.0805750000000 -0.3358740000000 -0.1307750000000 1.0   0.09
F      3 -0.0805750000000  0.3358740000000  0.1307750000000 1.0   0.09
S      4  0.3019940000000  0.2910870000000 -0.2909380000000 1.0   0.01
S      4 -0.3019940000000 -0.2910870000000  0.2909380000000 1.0   0.01
S      4  0.1964520000000  0.0125390000000  0.2281230000000 1.0   0.02
S      4 -0.1964520000000 -0.0125390000000 -0.2281230000000 1.0   0.02
Fe     5  0.0000000000000  0.0000000000000 -0.5000000000000 1.0   3.69
Fe     5  0.0000000000000  0.5000000000000  0.0000000000000 1.0   3.69
Fe     5 -0.5000000000000  0.0000000000000  0.5000000000000 1.0   3.73
Fe     5 -0.5000000000000  0.5000000000000  0.5000000000000 1.0   3.72
END
