TITL 4LiFeSO4F-200818-091737-5e835c 0.0347 488.183480 -1.51299775E+004 15.9998 16.2394 32 (Pc) n - 1
REM
REM Run started: Tue, 18 Aug 2020 13:44:25 +0100 in /lustre/scratch/uccabz1/launch_tmp/launcher_2020-08-18-08-17-31-029260
REM CASTEP 20.1 from code version af48c487+ pr-geom-scf-spinfix Tue Jun 2 15:39:59 2020 +0100
REM Functional Perdew Burke Ernzerhof Relativity Koelling-Harmon Dispersion off
REM Cut-off 340.0000 eV Grid scale 1.7500 Gmax 16.5316 1/A FBSC none
REM MP grid 3 2 2 Offset 0.000 0.000 0.000 No. kpts 3 Spacing 0.07
REM Total runtime: 16113.7 s
REM Overall efficiency: 74.5556 %
REM
REM 4LiFeSO4F.cell (79c870615ff1d88195b1fe3fe805288c)
REM
REM compiler GCC version 4.9.2
REM options -cpp -iprefix /lustre/shared/ucl/apps/gcc/4.9.2/bin/../lib/gcc/x86_64-unknown-linux-gnu/4.9.2/ -mtune=corei7 -march=x86-64 -g -Og
REM COMMAND_LINE
REM seed -1995385821 1118121827 -1541688528 -12269164 215614471 1215003356 450073388 1724012261 1653437883 -239907128 -1674897924 -1847691493
REM
REM S 3|1.8|5|6|7|30:31:32(qc=5)
REM O 2|1.5|12|13|15|20:21(qc=5)
REM Li 1|1.3|8|9|10|10U:20(qc=5)
REM Fe 3|2.2|2.0|1.0|8|9|10|40:41:32(qc=5)
REM F 2|1.6|10|12|13|20:21(qc=5)
REM 
CELL 1.54180    4.94826    8.56243   11.52348   90.00000   89.13353   90.00000
LATT -1
SFAC Li O  F  S  Fe 
Li     1 -0.1769930000000 -0.1147060000000  0.0839670000000 1.0  -0.02
Li     1 -0.1769930000000  0.1147060000000 -0.4160330000000 1.0  -0.02
Li     1 -0.0598040000000 -0.4693020000000  0.4754520000000 1.0  -0.02
Li     1 -0.0598040000000  0.4693020000000 -0.0245480000000 1.0  -0.02
O      2  0.2241060000000 -0.0937200000000  0.3561150000000 1.0   0.06
O      2  0.2817510000000 -0.3734950000000  0.3054660000000 1.0   0.06
O      2  0.1953480000000 -0.1772450000000  0.1509900000000 1.0   0.01
O      2 -0.1616230000000 -0.2497120000000  0.2934550000000 1.0   0.07
O      2  0.2241060000000  0.0937200000000 -0.1438850000000 1.0   0.06
O      2  0.2817510000000  0.3734950000000 -0.1945340000000 1.0   0.06
O      2  0.1953480000000  0.1772450000000 -0.3490100000000 1.0   0.01
O      2 -0.1616230000000  0.2497120000000 -0.2065450000000 1.0   0.07
O      2 -0.0404700000000  0.2874470000000  0.0613460000000 1.0   0.01
O      2  0.1501670000000  0.2261920000000  0.2505980000000 1.0   0.06
O      2 -0.2545590000000  0.0821620000000  0.1828060000000 1.0   0.06
O      2 -0.2935010000000  0.3506140000000  0.2436490000000 1.0   0.07
O      2 -0.0404700000000 -0.2874470000000 -0.4386540000000 1.0   0.01
O      2  0.1501670000000 -0.2261920000000 -0.2494020000000 1.0   0.06
O      2 -0.2545590000000 -0.0821620000000 -0.3171940000000 1.0   0.06
O      2 -0.2935010000000 -0.3506140000000 -0.2563510000000 1.0   0.07
F      3 -0.2330840000000  0.3888390000000 -0.4366590000000 1.0   0.09
F      3 -0.2330840000000 -0.3888390000000  0.0633410000000 1.0   0.09
F      3 -0.3254020000000  0.0997880000000  0.4436460000000 1.0   0.12
F      3 -0.3254020000000 -0.0997880000000 -0.0563540000000 1.0   0.12
S      4  0.1382880000000 -0.2194770000000  0.2743050000000 1.0   0.02
S      4  0.1382880000000  0.2194770000000 -0.2256950000000 1.0   0.02
S      4 -0.1030460000000  0.2370380000000  0.1810080000000 1.0   0.01
S      4 -0.1030460000000 -0.2370380000000 -0.3189920000000 1.0   0.01
Fe     5 -0.3766990000000  0.4229700000000 -0.2813580000000 1.0   3.67
Fe     5 -0.3766990000000 -0.4229700000000  0.2186420000000 1.0   3.67
Fe     5  0.4459330000000  0.0994160000000  0.3158010000000 1.0   3.72
Fe     5  0.4459330000000 -0.0994160000000 -0.1841990000000 1.0   3.72
END
