TITL 4LiFeSO4F-200817-233649-191692 0.0106 458.593324 -1.51310903E+004 16.0006 16.3272 32 (C2) n - 1
REM
REM Run started: Tue, 18 Aug 2020 16:10:51 +0100 in /scratch/scratch/uccabz1/launch_tmp/launcher_2020-08-17-22-36-47-135567
REM CASTEP 19.11| from code version Version unavailable
REM Functional Perdew Burke Ernzerhof Relativity Koelling-Harmon Dispersion off
REM Cut-off 340.0000 eV Grid scale 1.7500 Gmax 16.5316 1/A FBSC none
REM MP grid 3 3 3 Offset 0.000 0.000 0.000 No. kpts 10 Spacing 0.07
REM Total runtime: 59636.7 s
REM Overall efficiency: 97.7273 %
REM
REM 4LiFeSO4F.cell (79c870615ff1d88195b1fe3fe805288c)
REM
REM compiler GCC version 4.9.2
REM options -cpp -iprefix /scratch/UCL/applications/gcc/4.9.2/bin/../lib/gcc/x86_64-unknown-linux-gnu/4.9.2/ -mtune=corei7 -march=x86-64 -g -O2
REM COMMAND_LINE
REM seed -375923923 -213463243 -141333214 -131150677 -2031351094 -2134566137 777898319 -930191625 203457654 -1199415385 1216036361 347662637
REM
REM S 3|1.8|5|6|7|30:31:32(qc=5)
REM O 2|1.5|12|13|15|20:21(qc=5)
REM Li 1|1.3|8|9|10|10U:20(qc=5)
REM Fe 3|2.2|2.0|1.0|8|9|10|40:41:32(qc=5)
REM F 2|1.6|10|12|13|20:21(qc=5)
REM 
CELL 1.54180    9.16574    9.16574    8.05079   96.50648  109.26673  127.63582
LATT -1
SFAC Li O  F  S  Fe 
Li     1  0.1137770000000 -0.1419400000000  0.1345720000000 1.0  -0.02
Li     1 -0.2765130000000 -0.0207960000000 -0.1345720000000 1.0  -0.02
Li     1 -0.0836150000000 -0.3700230000000  0.3996170000000 1.0  -0.02
Li     1  0.2303590000000  0.5167670000000 -0.3996170000000 1.0  -0.02
O      2  0.1588340000000  0.3176760000000 -0.0723420000000 1.0   0.07
O      2 -0.1783690000000  0.2362720000000 -0.1637500000000 1.0   0.04
O      2  0.0015720000000  0.3556820000000 -0.3548240000000 1.0   0.01
O      2  0.1554040000000  0.5870580000000 -0.0245830000000 1.0   0.05
O      2 -0.6099820000000  0.2311760000000  0.0723420000000 1.0   0.07
O      2 -0.5999780000000 -0.0146200000000  0.1637500000000 1.0   0.04
O      2 -0.2894950000000  0.3563950000000  0.3548240000000 1.0   0.01
O      2 -0.3883590000000  0.1799870000000  0.0245830000000 1.0   0.05
O      2  0.1546080000000  0.3500390000000  0.3673550000000 1.0   0.03
O      2  0.1415590000000  0.0940380000000  0.2333580000000 1.0   0.05
O      2 -0.1969050000000  0.0026950000000  0.1420600000000 1.0   0.03
O      2  0.0139800000000  0.0623070000000  0.4683350000000 1.0   0.03
O      2 -0.0173150000000 -0.2127470000000 -0.3673550000000 1.0   0.03
O      2 -0.1393200000000 -0.0917990000000 -0.2333580000000 1.0   0.05
O      2 -0.1393660000000 -0.3389660000000 -0.1420600000000 1.0   0.03
O      2 -0.4060280000000 -0.4543540000000 -0.4683350000000 1.0   0.03
F      3  0.4342720000000  0.2677020000000 -0.2495990000000 1.0   0.14
F      3 -0.4827000000000 -0.3161290000000  0.2495990000000 1.0   0.14
F      3 -0.0498350000000 -0.3638840000000  0.1906550000000 1.0   0.06
F      3  0.4454610000000 -0.2404900000000 -0.1906550000000 1.0   0.06
S      4  0.0325350000000  0.3750000000000 -0.1592340000000 1.0   0.01
S      4 -0.4657670000000  0.1917690000000  0.1592340000000 1.0   0.01
S      4  0.0258750000000  0.1245150000000  0.3076900000000 1.0   0.01
S      4 -0.1831760000000 -0.2818150000000 -0.3076900000000 1.0   0.01
Fe     5  0.1688940000000  0.1257800000000 -0.2349240000000 1.0   3.73
Fe     5  0.3607050000000 -0.5961820000000  0.2349240000000 1.0   3.73
Fe     5  0.4798490000000 -0.1875510000000  0.0788410000000 1.0   3.75
Fe     5 -0.2663920000000  0.4010080000000 -0.0788410000000 1.0   3.75
END
