TITL 4LiFeSO4F-200817-230945-162ac5 0.0630 427.935380 -1.51297390E+004 16.0000 16.2990 32 (I-4) n - 1
REM
REM Run started: Tue, 18 Aug 2020 03:08:10 +0100 in /lustre/scratch/uccabz1/launch_tmp/launcher_2020-08-17-22-09-42-406100
REM CASTEP 20.1 from code version af48c487+ pr-geom-scf-spinfix Tue Jun 2 15:39:59 2020 +0100
REM Functional Perdew Burke Ernzerhof Relativity Koelling-Harmon Dispersion off
REM Cut-off 340.0000 eV Grid scale 1.7500 Gmax 16.5316 1/A FBSC none
REM MP grid 3 2 2 Offset 0.000 0.000 0.000 No. kpts 5 Spacing 0.07
REM Total runtime: 14969 s
REM Overall efficiency: 77.7778 %
REM
REM 4LiFeSO4F.cell (79c870615ff1d88195b1fe3fe805288c)
REM
REM compiler GCC version 4.9.2
REM options -cpp -iprefix /lustre/shared/ucl/apps/gcc/4.9.2/bin/../lib/gcc/x86_64-unknown-linux-gnu/4.9.2/ -mtune=corei7 -march=x86-64 -g -Og
REM COMMAND_LINE
REM seed 796051048 1277933376 593645539 -1766523165 192451656 -1840992578 -1509552406 820692170 1638542427 306482386 1879580269 1416100973
REM
REM S 3|1.8|5|6|7|30:31:32(qc=5)
REM O 2|1.5|12|13|15|20:21(qc=5)
REM Li 1|1.3|8|9|10|10U:20(qc=5)
REM Fe 3|2.2|2.0|1.0|8|9|10|40:41:32(qc=5)
REM F 2|1.6|10|12|13|20:21(qc=5)
REM 
CELL 1.54180    5.73242    9.10313    9.10313   84.31053   71.64763   71.64763
LATT -1
SFAC Li O  F  S  Fe 
Li     1  0.0852820000000 -0.0514060000000  0.4783490000000 1.0  -0.02
Li     1 -0.4877750000000  0.0514060000000 -0.4783490000000 1.0  -0.02
Li     1 -0.0338760000000 -0.4783490000000 -0.0514060000000 1.0  -0.02
Li     1  0.4363680000000  0.4783490000000  0.0514060000000 1.0  -0.02
O      2 -0.3745650000000 -0.3995180000000  0.1183430000000 1.0   0.01
O      2 -0.7238280000000 -0.2078100000000  0.2972690000000 1.0   0.04
O      2 -0.3360830000000 -0.1358910000000  0.1235140000000 1.0   0.07
O      2 -0.2938420000000 -0.3010670000000  0.3391330000000 1.0   0.09
O      2 -0.6557410000000  0.3995180000000 -0.1183430000000 1.0   0.01
O      2 -0.6343690000000  0.2078100000000 -0.2972690000000 1.0   0.04
O      2 -0.3484600000000  0.1358910000000 -0.1235140000000 1.0   0.07
O      2 -0.2557760000000  0.3010670000000 -0.3391330000000 1.0   0.09
O      2 -0.2259170000000 -0.1183430000000 -0.3995180000000 1.0   0.01
O      2 -0.0683620000000 -0.2972690000000 -0.2078100000000 1.0   0.04
O      2 -0.5280260000000 -0.1235140000000 -0.1358910000000 1.0   0.07
O      2 -0.4050910000000 -0.3391330000000 -0.3010670000000 1.0   0.09
O      2  0.2562220000000  0.1183430000000  0.3995180000000 1.0   0.01
O      2  0.4265590000000  0.2972690000000  0.2078100000000 1.0   0.04
O      2  0.2125680000000  0.1235140000000  0.1358910000000 1.0   0.07
O      2 -0.0452900000000  0.3391330000000  0.3010670000000 1.0   0.09
F      3  0.1618050000000 -0.3333650000000  0.0358170000000 1.0   0.10
F      3 -0.1357430000000  0.3333650000000 -0.0358170000000 1.0   0.10
F      3  0.1715590000000 -0.0358170000000 -0.3333650000000 1.0   0.10
F      3 -0.1976220000000  0.0358170000000  0.3333650000000 1.0   0.10
S      4 -0.4325110000000 -0.2629750000000  0.2174090000000 1.0   0.00
S      4 -0.4780780000000  0.2629750000000 -0.2174090000000 1.0   0.00
S      4 -0.3045130000000 -0.2174090000000 -0.2629750000000 1.0   0.00
S      4  0.2151030000000  0.2174090000000  0.2629750000000 1.0   0.00
Fe     5 -0.0335260000000 -0.1757410000000  0.2208860000000 1.0   3.70
Fe     5  0.0116190000000  0.1757410000000 -0.2208860000000 1.0   3.70
Fe     5  0.2092670000000 -0.2208860000000 -0.1757410000000 1.0   3.70
Fe     5 -0.1873610000000  0.2208860000000  0.1757410000000 1.0   3.70
END
