TITL 4LiFeSO4F-200804-063750-79036f 0.0447 472.469666 -1.51306287E+004 16.0000 16.2104 32 (P21) n - 1
REM
REM Run started: Tue, 04 Aug 2020 16:17:37 +0100 in /lustre/scratch/uccabz1/launch_tmp/launcher_2020-08-04-05-37-40-752637
REM CASTEP 20.1 from code version af48c487+ pr-geom-scf-spinfix Tue Jun 2 15:39:59 2020 +0100
REM Functional Perdew Burke Ernzerhof Relativity Koelling-Harmon Dispersion off
REM Cut-off 340.0000 eV Grid scale 1.7500 Gmax 16.5316 1/A FBSC none
REM MP grid 3 2 2 Offset 0.000 0.000 0.000 No. kpts 3 Spacing 0.07
REM Total runtime: 38275.1 s
REM Overall efficiency: 72 %
REM
REM 4LiFeSO4F.cell (79c870615ff1d88195b1fe3fe805288c)
REM
REM compiler GCC version 4.9.2
REM options -cpp -iprefix /lustre/shared/ucl/apps/gcc/4.9.2/bin/../lib/gcc/x86_64-unknown-linux-gnu/4.9.2/ -mtune=corei7 -march=x86-64 -g -Og
REM COMMAND_LINE
REM seed -1643446758 1616765269 -2071878914 -1452921055 -1443158862 1642416531 -875845322 52610660 1330210325 191840857 -393405473 296879258
REM
REM S 3|1.8|5|6|7|30:31:32(qc=5)
REM O 2|1.5|12|13|15|20:21(qc=5)
REM Li 1|1.3|8|9|10|10U:20(qc=5)
REM Fe 3|2.2|2.0|1.0|8|9|10|40:41:32(qc=5)
REM F 2|1.6|10|12|13|20:21(qc=5)
REM 
CELL 1.54180    7.61652    9.44820    8.62505   90.00000   90.00000  130.42868
LATT -1
SFAC Li O  F  S  Fe 
Li     1 -0.3959930000000  0.2840870000000  0.1997510000000 1.0  -0.02
Li     1  0.3959930000000 -0.2840870000000 -0.3002490000000 1.0  -0.02
Li     1  0.2194660000000 -0.4465790000000  0.0084420000000 1.0  -0.01
Li     1 -0.2194660000000  0.4465790000000 -0.4915580000000 1.0  -0.01
O      2 -0.2500150000000 -0.4497340000000  0.1109810000000 1.0   0.05
O      2 -0.2763300000000 -0.3015450000000  0.3343550000000 1.0   0.07
O      2  0.0782250000000 -0.1172900000000  0.1794940000000 1.0   0.04
O      2 -0.0177520000000 -0.3760120000000  0.3397080000000 1.0   0.02
O      2  0.2500150000000  0.4497340000000 -0.3890190000000 1.0   0.05
O      2  0.2763300000000  0.3015450000000 -0.1656450000000 1.0   0.07
O      2 -0.0782250000000  0.1172900000000 -0.3205060000000 1.0   0.04
O      2  0.0177520000000  0.3760120000000 -0.1602920000000 1.0   0.02
O      2 -0.2173410000000  0.2154900000000  0.2544230000000 1.0   0.01
O      2  0.0443010000000  0.1709720000000  0.3638890000000 1.0   0.08
O      2  0.2016800000000  0.4246320000000  0.1938360000000 1.0   0.05
O      2 -0.0728700000000  0.1009210000000  0.0873560000000 1.0   0.06
O      2  0.2173410000000 -0.2154900000000 -0.2455770000000 1.0   0.01
O      2 -0.0443010000000 -0.1709720000000 -0.1361110000000 1.0   0.08
O      2 -0.2016800000000 -0.4246320000000 -0.3061640000000 1.0   0.05
O      2  0.0728700000000 -0.1009210000000 -0.4126440000000 1.0   0.06
F      3  0.5435170000000 -0.1987350000000  0.5147460000000 1.0   0.13
F      3 -0.5435170000000  0.1987350000000  0.0147460000000 1.0   0.13
F      3  0.5136630000000  0.3251040000000  0.3961670000000 1.0   0.07
F      3 -0.5136630000000 -0.3251040000000 -0.1038330000000 1.0   0.07
S      4 -0.1070080000000 -0.3066880000000  0.2407670000000 1.0   0.01
S      4  0.1070080000000  0.3066880000000 -0.2592330000000 1.0   0.01
S      4 -0.0215280000000  0.2239750000000  0.2212630000000 1.0   0.01
S      4  0.0215280000000 -0.2239750000000 -0.2787370000000 1.0   0.01
Fe     5  0.3889160000000  0.4572330000000  0.4061440000000 1.0   3.70
Fe     5 -0.3889160000000 -0.4572330000000 -0.0938560000000 1.0   3.70
Fe     5 -0.1382900000000 -0.0656170000000 -0.5088250000000 1.0   3.74
Fe     5  0.1382900000000  0.0656170000000 -0.0088250000000 1.0   3.74
END
