TITL 4LiFeSO4F-200818-135541-b1fb23 0.0082 389.665382 -1.51320927E+004 16.0000 16.3221 32 (P-1) n - 1
REM
REM Run started: Wed, 19 Aug 2020 14:41:37 +0100 in /lustre/scratch/uccabz1/launch_tmp/launcher_2020-08-18-12-55-34-566791
REM CASTEP 20.1 from code version af48c487+ pr-geom-scf-spinfix Tue Jun 2 15:39:59 2020 +0100
REM Functional Perdew Burke Ernzerhof Relativity Koelling-Harmon Dispersion off
REM Cut-off 340.0000 eV Grid scale 1.7500 Gmax 16.5316 1/A FBSC none
REM MP grid 3 3 3 Offset 0.000 0.000 0.000 No. kpts 14 Spacing 0.07
REM Total runtime: 90308.6 s
REM Overall efficiency: 97.9091 %
REM
REM 4LiFeSO4F.cell (79c870615ff1d88195b1fe3fe805288c)
REM
REM compiler GCC version 4.9.2
REM options -cpp -iprefix /lustre/shared/ucl/apps/gcc/4.9.2/bin/../lib/gcc/x86_64-unknown-linux-gnu/4.9.2/ -mtune=corei7 -march=x86-64 -g -Og
REM COMMAND_LINE
REM seed 767610397 -1286189803 1930547441 -923198831 -1744930520 -258718777 -2080716575 -1094387850 -1386114673 -653323019 -612438204 2105378757
REM
REM S 3|1.8|5|6|7|30:31:32(qc=5)
REM O 2|1.5|12|13|15|20:21(qc=5)
REM Li 1|1.3|8|9|10|10U:20(qc=5)
REM Fe 3|2.2|2.0|1.0|8|9|10|40:41:32(qc=5)
REM F 2|1.6|10|12|13|20:21(qc=5)
REM 
CELL 1.54180    8.28649    8.47452    7.60145   99.09613  108.43608  122.48328
LATT -1
SFAC Li O  F  S  Fe 
Li     1  0.1792100000000 -0.0905640000000 -0.1534790000000 1.0  -0.01
Li     1 -0.1792100000000  0.0905640000000  0.1534790000000 1.0  -0.01
Li     1  0.3099440000000  0.2226420000000  0.3412580000000 1.0  -0.02
Li     1 -0.3099440000000 -0.2226420000000 -0.3412580000000 1.0  -0.02
O      2 -0.2554530000000 -0.2941080000000 -0.0922360000000 1.0   0.05
O      2 -0.1008200000000 -0.3461590000000  0.2057760000000 1.0   0.07
O      2 -0.0056650000000 -0.0060800000000  0.2459490000000 1.0   0.01
O      2  0.1365900000000 -0.1279390000000  0.0765600000000 1.0   0.01
O      2  0.2554530000000  0.2941080000000  0.0922360000000 1.0   0.05
O      2  0.1008200000000  0.3461590000000 -0.2057760000000 1.0   0.07
O      2  0.0056650000000  0.0060800000000 -0.2459490000000 1.0   0.01
O      2 -0.1365900000000  0.1279390000000 -0.0765600000000 1.0   0.01
O      2  0.3872420000000  0.3046380000000 -0.3513400000000 1.0   0.05
O      2  0.4911330000000  0.2025390000000 -0.0744190000000 1.0   0.06
O      2  0.7137700000000  0.3260270000000 -0.2455620000000 1.0   0.08
O      2  0.3441200000000 -0.0109150000000 -0.4278280000000 1.0   0.05
O      2 -0.3872420000000 -0.3046380000000  0.3513400000000 1.0   0.05
O      2 -0.4911330000000 -0.2025390000000  0.0744190000000 1.0   0.06
O      2 -0.7137700000000 -0.3260270000000  0.2455620000000 1.0   0.08
O      2 -0.3441200000000  0.0109150000000  0.4278280000000 1.0   0.05
F      3 -0.5905970000000 -0.3348530000000 -0.3656090000000 1.0   0.09
F      3  0.5905970000000  0.3348530000000  0.3656090000000 1.0   0.09
F      3  0.0566210000000 -0.3433410000000 -0.3562920000000 1.0   0.11
F      3 -0.0566210000000  0.3433410000000  0.3562920000000 1.0   0.11
S      4 -0.0513400000000 -0.1890590000000  0.1095480000000 1.0   0.01
S      4  0.0513400000000  0.1890590000000 -0.1095480000000 1.0   0.01
S      4  0.4850390000000  0.2040090000000 -0.2766410000000 1.0   0.02
S      4 -0.4850390000000 -0.2040090000000  0.2766410000000 1.0   0.02
Fe     5  0.1672940000000 -0.3326890000000  0.4394270000000 1.0   3.85
Fe     5 -0.1672940000000  0.3326890000000 -0.4394270000000 1.0   3.85
Fe     5 -0.5753640000000 -0.4585490000000 -0.1426420000000 1.0   3.56
Fe     5  0.5753640000000  0.4585490000000  0.1426420000000 1.0   3.56
END
