TITL 4LiFeSO4F-200804-085553-8d6e9f 0.0224 537.613872 -1.51303066E+004 16.0000 16.4704 32 (Fdd2) n - 1
REM
REM Run started: Tue, 04 Aug 2020 16:23:41 +0100 in /lustre/scratch/uccabz1/launch_tmp/launcher_2020-08-04-07-55-50-867068
REM CASTEP 20.1 from code version af48c487+ pr-geom-scf-spinfix Tue Jun 2 15:39:59 2020 +0100
REM Functional Perdew Burke Ernzerhof Relativity Koelling-Harmon Dispersion off
REM Cut-off 340.0000 eV Grid scale 1.7500 Gmax 16.5316 1/A FBSC none
REM MP grid 3 3 2 Offset 0.000 0.000 0.000 No. kpts 6 Spacing 0.07
REM Total runtime: 27307.6 s
REM Overall efficiency: 72.6364 %
REM
REM 4LiFeSO4F.cell (79c870615ff1d88195b1fe3fe805288c)
REM
REM compiler GCC version 4.9.2
REM options -cpp -iprefix /lustre/shared/ucl/apps/gcc/4.9.2/bin/../lib/gcc/x86_64-unknown-linux-gnu/4.9.2/ -mtune=corei7 -march=x86-64 -g -Og
REM COMMAND_LINE
REM seed -2119531309 649679728 -660494177 -323853101 1509728407 25875477 84933039 13459234 -813588109 -832632067 -1144102584 633350200
REM
REM S 3|1.8|5|6|7|30:31:32(qc=5)
REM O 2|1.5|12|13|15|20:21(qc=5)
REM Li 1|1.3|8|9|10|10U:20(qc=5)
REM Fe 3|2.2|2.0|1.0|8|9|10|40:41:32(qc=5)
REM F 2|1.6|10|12|13|20:21(qc=5)
REM 
CELL 1.54180    9.51863    9.51863    8.65538  101.83448  101.83448  128.83124
LATT -1
SFAC Li O  F  S  Fe 
Li     1  0.1023990000000 -0.2503690000000  0.1861710000000 1.0  -0.02
Li     1  0.2503690000000 -0.1023990000000 -0.1861710000000 1.0  -0.02
Li     1 -0.3134590000000 -0.1662270000000 -0.3138290000000 1.0  -0.02
Li     1  0.1662270000000  0.3134590000000  0.3138290000000 1.0  -0.02
O      2  0.2409070000000 -0.4683330000000  0.1950580000000 1.0   0.06
O      2  0.5448570000000 -0.1984700000000  0.1780670000000 1.0   0.07
O      2  0.5642260000000 -0.2110610000000  0.4616310000000 1.0   0.01
O      2  0.3911690000000 -0.1245890000000  0.3254370000000 1.0   0.05
O      2  0.4683330000000 -0.2409070000000 -0.1950580000000 1.0   0.06
O      2  0.1984700000000 -0.5448570000000 -0.1780670000000 1.0   0.07
O      2  0.2110610000000 -0.5642260000000 -0.4616310000000 1.0   0.01
O      2  0.1245890000000 -0.3911690000000 -0.3254370000000 1.0   0.05
O      2 -0.0866100000000 -0.2958500000000 -0.3049420000000 1.0   0.06
O      2 -0.3734630000000 -0.6167910000000 -0.3219330000000 1.0   0.07
O      2 -0.0773090000000 -0.3525950000000 -0.0383690000000 1.0   0.01
O      2 -0.2999750000000 -0.3157330000000 -0.1745630000000 1.0   0.05
O      2  0.2958500000000  0.0866100000000  0.3049420000000 1.0   0.06
O      2  0.6167910000000  0.3734630000000  0.3219330000000 1.0   0.07
O      2  0.3525950000000  0.0773090000000  0.0383690000000 1.0   0.01
O      2  0.3157330000000  0.2999750000000  0.1745630000000 1.0   0.05
F      3  0.0061040000000 -0.3688590000000  0.3226210000000 1.0   0.13
F      3  0.3688590000000 -0.0061040000000 -0.3226210000000 1.0   0.13
F      3 -0.0585200000000  0.0665180000000 -0.1773790000000 1.0   0.13
F      3 -0.0665180000000  0.0585200000000  0.1773790000000 1.0   0.13
S      4  0.4407220000000 -0.2485720000000  0.2951650000000 1.0   0.02
S      4  0.2485720000000 -0.4407220000000 -0.2951650000000 1.0   0.02
S      4 -0.2062630000000 -0.3955570000000 -0.2048350000000 1.0   0.02
S      4  0.3955570000000  0.2062630000000  0.2048350000000 1.0   0.02
Fe     5 -0.3288170000000 -0.1800340000000  0.0199130000000 1.0   3.67
Fe     5  0.1800340000000  0.3288170000000 -0.0199130000000 1.0   3.67
Fe     5 -0.5500530000000  0.0987300000000 -0.4800870000000 1.0   3.67
Fe     5 -0.0987300000000  0.5500530000000  0.4800870000000 1.0   3.67
END
