TITL 4LiFeSO4F-200804-061902-4c47aa -0.0188 428.302933 -1.51288553E+004 16.0000 16.2258 32 (P-1) n - 1
REM
REM Run started: Thu, 06 Aug 2020 07:04:58 +0100 in /lustre/scratch/uccabz1/launch_tmp/launcher_2020-08-05-17-45-01-979191
REM CASTEP 20.1 from code version af48c487+ pr-geom-scf-spinfix Tue Jun 2 15:39:59 2020 +0100
REM Functional Perdew Burke Ernzerhof Relativity Koelling-Harmon Dispersion off
REM Cut-off 340.0000 eV Grid scale 1.7500 Gmax 16.5316 1/A FBSC none
REM MP grid 4 2 2 Offset 0.000 0.000 0.000 No. kpts 8 Spacing 0.07
REM Total runtime: 46915.8 s
REM Overall efficiency: 97.5714 %
REM
REM
REM
REM compiler GCC version 4.9.2
REM options -cpp -iprefix /lustre/shared/ucl/apps/gcc/4.9.2/bin/../lib/gcc/x86_64-unknown-linux-gnu/4.9.2/ -mtune=corei7 -march=x86-64 -g -Og
REM COMMAND_LINE
REM seed -1240030046 1863468101 -1097423172 -1742609443 -1496943421 -1869192537 1606432200 1354682433 2029176272 1729254573 1187777910 -488933322
REM
REM S 3|1.8|5|6|7|30:31:32(qc=5)
REM O 2|1.5|12|13|15|20:21(qc=5)
REM Li 1|1.3|8|9|10|10U:20(qc=5)
REM Fe 3|2.2|2.0|1.0|8|9|10|40:41:32(qc=5)
REM F 2|1.6|10|12|13|20:21(qc=5)
REM 
CELL 1.54180    4.74709    9.99515   10.46769   94.76975   94.96473  118.99533
LATT -1
SFAC Li O  F  S  Fe 
Li     1  0.0651530000000  0.0625780000000 -0.1624500000000 1.0  -0.03
Li     1 -0.0651530000000 -0.0625780000000  0.1624500000000 1.0  -0.03
Li     1  0.3670160000000  0.0740780000000  0.4520280000000 1.0  -0.01
Li     1 -0.3670160000000 -0.0740780000000 -0.4520280000000 1.0  -0.01
O      2 -0.1827090000000  0.3274340000000  0.3648530000000 1.0   0.07
O      2 -0.4964690000000  0.3853290000000  0.2013030000000 1.0   0.07
O      2 -0.7107370000000  0.1222370000000  0.2627880000000 1.0   0.02
O      2 -0.2471150000000  0.2310040000000  0.1365100000000 1.0   0.08
O      2  0.1827090000000 -0.3274340000000 -0.3648530000000 1.0   0.07
O      2  0.4964690000000 -0.3853290000000 -0.2013030000000 1.0   0.07
O      2  0.7107370000000 -0.1222370000000 -0.2627880000000 1.0   0.02
O      2  0.2471150000000 -0.2310040000000 -0.1365100000000 1.0   0.08
O      2  0.0672890000000 -0.7466290000000 -0.1777670000000 1.0   0.01
O      2 -0.3521340000000 -0.8746730000000 -0.3729470000000 1.0   0.02
O      2 -0.2949190000000 -0.6453890000000 -0.2510310000000 1.0   0.08
O      2 -0.5017110000000 -0.8890430000000 -0.1523210000000 1.0   0.07
O      2 -0.0672890000000  0.7466290000000  0.1777670000000 1.0   0.01
O      2  0.3521340000000  0.8746730000000  0.3729470000000 1.0   0.02
O      2  0.2949190000000  0.6453890000000  0.2510310000000 1.0   0.08
O      2  0.5017110000000  0.8890430000000  0.1523210000000 1.0   0.07
F      3 -0.5000000000000  0.5000000000000  0.5000000000000 1.0   0.12
F      3  0.0000000000000  0.0000000000000  0.0000000000000 1.0   0.05
F      3  0.0000000000000  1.0000000000000  0.5000000000000 1.0   0.00
F      3  0.0000000000000  0.5000000000000  0.0000000000000 1.0   0.16
S      4 -0.4212920000000  0.2641210000000  0.2407060000000 1.0   0.02
S      4  0.4212920000000 -0.2641210000000 -0.2407060000000 1.0   0.02
S      4 -0.2608350000000 -0.7868710000000 -0.2411530000000 1.0   0.01
S      4  0.2608350000000  0.7868710000000  0.2411530000000 1.0   0.01
Fe     5  0.2017590000000  0.4526650000000  0.1420290000000 1.0   3.69
Fe     5 -0.2017590000000 -0.4526650000000 -0.1420290000000 1.0   3.69
Fe     5  0.0000000000000 -0.5000000000000 -0.5000000000000 1.0   3.72
Fe     5  0.5000000000000  0.0000000000000  0.0000000000000 1.0   3.76
END
