TITL 4LiFeSO4F-200818-133731-ef96b8 0.0668 484.375718 -1.51313166E+004 16.0000 16.2867 32 (P21) n - 1
REM
REM Run started: Wed, 19 Aug 2020 06:36:04 +0100 in /lustre/scratch/uccabz1/launch_tmp/launcher_2020-08-18-12-37-28-613512
REM CASTEP 20.1 from code version af48c487+ pr-geom-scf-spinfix Tue Jun 2 15:39:59 2020 +0100
REM Functional Perdew Burke Ernzerhof Relativity Koelling-Harmon Dispersion off
REM Cut-off 340.0000 eV Grid scale 1.7500 Gmax 16.5316 1/A FBSC none
REM MP grid 3 3 1 Offset 0.000 0.000 0.000 No. kpts 4 Spacing 0.07
REM Total runtime: 65001 s
REM Overall efficiency: 74.9167 %
REM
REM 4LiFeSO4F.cell (79c870615ff1d88195b1fe3fe805288c)
REM
REM compiler GCC version 4.9.2
REM options -cpp -iprefix /lustre/shared/ucl/apps/gcc/4.9.2/bin/../lib/gcc/x86_64-unknown-linux-gnu/4.9.2/ -mtune=corei7 -march=x86-64 -g -Og
REM COMMAND_LINE
REM seed -959531991 778599961 -1988023559 -1851693897 2065256755 -846179492 1809002894 1954682357 113450437 1706999787 86235291 -778092774
REM
REM S 3|1.8|5|6|7|30:31:32(qc=5)
REM O 2|1.5|12|13|15|20:21(qc=5)
REM Li 1|1.3|8|9|10|10U:20(qc=5)
REM Fe 3|2.2|2.0|1.0|8|9|10|40:41:32(qc=5)
REM F 2|1.6|10|12|13|20:21(qc=5)
REM 
CELL 1.54180    5.70351    5.73448   15.87970   90.00000  111.15347   90.00000
LATT -1
SFAC Li O  F  S  Fe 
Li     1 -0.4945250000000 -0.3500400000000 -0.2975960000000 1.0  -0.02
Li     1  0.4945250000000  0.1499600000000  0.2975960000000 1.0  -0.02
Li     1  0.0501480000000 -0.1138660000000  0.0390720000000 1.0  -0.01
Li     1 -0.0501480000000  0.3861340000000 -0.0390720000000 1.0  -0.01
O      2 -0.1370010000000  0.4414280000000  0.1865330000000 1.0   0.10
O      2 -0.0920560000000  0.0649030000000  0.1179730000000 1.0   0.01
O      2 -0.3288710000000  0.0831370000000  0.2201660000000 1.0   0.01
O      2  0.1300680000000  0.1395470000000  0.2804240000000 1.0   0.06
O      2  0.1370010000000 -0.0585720000000 -0.1865330000000 1.0   0.10
O      2  0.0920560000000 -0.4350970000000 -0.1179730000000 1.0   0.01
O      2  0.3288710000000 -0.4168630000000 -0.2201660000000 1.0   0.01
O      2 -0.1300680000000 -0.3604530000000 -0.2804240000000 1.0   0.06
O      2 -0.3966140000000 -0.5858960000000  0.3769100000000 1.0   0.01
O      2 -0.5048520000000 -0.1656290000000  0.3699310000000 1.0   0.06
O      2 -0.0814740000000 -0.2909870000000  0.3856020000000 1.0   0.08
O      2 -0.2292070000000 -0.3371740000000  0.5122250000000 1.0   0.07
O      2  0.3966140000000 -0.0858960000000 -0.3769100000000 1.0   0.01
O      2  0.5048520000000  0.3343710000000 -0.3699310000000 1.0   0.06
O      2  0.0814740000000  0.2090130000000 -0.3856020000000 1.0   0.08
O      2  0.2292070000000  0.1628260000000 -0.5122250000000 1.0   0.07
F      3 -0.2040720000000 -0.3551320000000  0.0041480000000 1.0   0.10
F      3  0.2040720000000  0.1448680000000 -0.0041480000000 1.0   0.10
F      3  0.3108440000000 -0.3243800000000  0.0842550000000 1.0   0.13
F      3 -0.3108440000000  0.1756200000000 -0.0842550000000 1.0   0.13
S      4 -0.1142690000000  0.1777330000000  0.1991280000000 1.0   0.01
S      4  0.1142690000000 -0.3222670000000 -0.1991280000000 1.0   0.01
S      4 -0.3041830000000 -0.3523590000000  0.4106790000000 1.0   0.02
S      4  0.3041830000000  0.1476410000000 -0.4106790000000 1.0   0.02
Fe     5  0.6323470000000 -0.3755190000000  0.0889000000000 1.0   3.68
Fe     5 -0.6323470000000  0.1244810000000 -0.0889000000000 1.0   3.68
Fe     5  0.1778210000000 -0.0656670000000  0.3894850000000 1.0   3.70
Fe     5 -0.1778210000000  0.4343330000000 -0.3894850000000 1.0   3.70
END
