TITL 4LiFeSO4F-200804-082901-1ce62b -0.0210 396.272049 -1.51315455E+004 16.0000 16.2737 32 (P-1) n - 1
REM
REM Run started: Wed, 05 Aug 2020 07:17:02 +0100 in /lustre/scratch/uccabz1/launch_tmp/launcher_2020-08-04-07-28-54-200091
REM CASTEP 20.1 from code version af48c487+ pr-geom-scf-spinfix Tue Jun 2 15:39:59 2020 +0100
REM Functional Perdew Burke Ernzerhof Relativity Koelling-Harmon Dispersion off
REM Cut-off 340.0000 eV Grid scale 1.7500 Gmax 16.5316 1/A FBSC none
REM MP grid 3 3 2 Offset 0.000 0.000 0.000 No. kpts 9 Spacing 0.07
REM Total runtime: 86971.8 s
REM Overall efficiency: 84.6667 %
REM
REM 4LiFeSO4F.cell (79c870615ff1d88195b1fe3fe805288c)
REM
REM compiler GCC version 4.9.2
REM options -cpp -iprefix /lustre/shared/ucl/apps/gcc/4.9.2/bin/../lib/gcc/x86_64-unknown-linux-gnu/4.9.2/ -mtune=corei7 -march=x86-64 -g -Og
REM COMMAND_LINE
REM seed 748098972 2110291957 -108018372 -744285223 -1452818012 1861145723 1223472365 13920356 -765989349 -745734031 1113914323 776744338
REM
REM S 3|1.8|5|6|7|30:31:32(qc=5)
REM O 2|1.5|12|13|15|20:21(qc=5)
REM Li 1|1.3|8|9|10|10U:20(qc=5)
REM Fe 3|2.2|2.0|1.0|8|9|10|40:41:32(qc=5)
REM F 2|1.6|10|12|13|20:21(qc=5)
REM 
CELL 1.54180    6.00273    8.03277    9.54556  116.60805  102.05597   93.38564
LATT -1
SFAC Li O  F  S  Fe 
Li     1 -0.2979200000000  0.0927630000000 -0.0384000000000 1.0  -0.00
Li     1  0.2979200000000 -0.0927630000000  0.0384000000000 1.0  -0.00
Li     1 -0.2057010000000  0.1807270000000  0.3143480000000 1.0  -0.01
Li     1  0.2057010000000 -0.1807270000000 -0.3143480000000 1.0  -0.01
O      2  0.4168760000000  0.2908810000000  0.5614350000000 1.0   0.09
O      2  0.1069230000000  0.1696010000000  0.3079320000000 1.0   0.01
O      2  0.2304880000000 -0.0388240000000  0.4246710000000 1.0   0.06
O      2  0.4794090000000  0.0687410000000  0.2938460000000 1.0   0.01
O      2 -0.4168760000000 -0.2908810000000 -0.5614350000000 1.0   0.09
O      2 -0.1069230000000 -0.1696010000000 -0.3079320000000 1.0   0.01
O      2 -0.2304880000000  0.0388240000000 -0.4246710000000 1.0   0.06
O      2 -0.4794090000000 -0.0687410000000 -0.2938460000000 1.0   0.01
O      2 -0.3142920000000 -0.3262230000000  0.1371780000000 1.0   0.09
O      2  0.0586780000000 -0.2608610000000  0.0858750000000 1.0   0.05
O      2 -0.2696970000000 -0.1007350000000  0.0358770000000 1.0   0.02
O      2 -0.2877590000000 -0.4374780000000 -0.1429460000000 1.0   0.07
O      2  0.3142920000000  0.3262230000000 -0.1371780000000 1.0   0.09
O      2 -0.0586780000000  0.2608610000000 -0.0858750000000 1.0   0.05
O      2  0.2696970000000  0.1007350000000 -0.0358770000000 1.0   0.02
O      2  0.2877590000000  0.4374780000000  0.1429460000000 1.0   0.07
F      3  0.2553750000000 -0.3043960000000 -0.1796790000000 1.0   0.11
F      3 -0.2553750000000  0.3043960000000  0.1796790000000 1.0   0.11
F      3 -0.1000510000000 -0.6333570000000 -0.4484650000000 1.0   0.15
F      3  0.1000510000000  0.6333570000000  0.4484650000000 1.0   0.15
S      4  0.3062700000000  0.1203770000000  0.3918690000000 1.0   0.00
S      4 -0.3062700000000 -0.1203770000000 -0.3918690000000 1.0   0.00
S      4 -0.2020160000000 -0.2784770000000  0.0279880000000 1.0   0.02
S      4  0.2020160000000  0.2784770000000 -0.0279880000000 1.0   0.02
Fe     5  0.2053760000000  0.6831140000000  0.2833090000000 1.0   3.65
Fe     5 -0.2053760000000 -0.6831140000000 -0.2833090000000 1.0   3.65
Fe     5  0.2049370000000 -0.5754080000000 -0.2885800000000 1.0   3.69
Fe     5 -0.2049370000000  0.5754080000000  0.2885800000000 1.0   3.69
END
