TITL 4LiFeSO4F-200804-093320-6f8c4b -0.0093 398.928054 -1.51269570E+004 18.6606 18.7358 32 (C2) n - 1
REM
REM Run started: Tue, 04 Aug 2020 20:13:32 +0100 in /lustre/scratch/uccabz1/launch_tmp/launcher_2020-08-04-08-33-08-419398
REM CASTEP 20.1 from code version af48c487+ pr-geom-scf-spinfix Tue Jun 2 15:39:59 2020 +0100
REM Functional Perdew Burke Ernzerhof Relativity Koelling-Harmon Dispersion off
REM Cut-off 340.0000 eV Grid scale 1.7500 Gmax 16.5316 1/A FBSC none
REM MP grid 4 2 2 Offset 0.000 0.000 0.000 No. kpts 6 Spacing 0.07
REM Total runtime: 38841.4 s
REM Overall efficiency: 72 %
REM
REM 4LiFeSO4F.cell (79c870615ff1d88195b1fe3fe805288c)
REM
REM compiler GCC version 4.9.2
REM options -cpp -iprefix /lustre/shared/ucl/apps/gcc/4.9.2/bin/../lib/gcc/x86_64-unknown-linux-gnu/4.9.2/ -mtune=corei7 -march=x86-64 -g -Og
REM COMMAND_LINE
REM seed -1671707378 1168763436 1299311297 -369418244 833556475 -2065283865 770464514 -1255619751 1136046311 1824189823 236730105 -2062533737
REM
REM S 3|1.8|5|6|7|30:31:32(qc=5)
REM O 2|1.5|12|13|15|20:21(qc=5)
REM Li 1|1.3|8|9|10|10U:20(qc=5)
REM Fe 3|2.2|2.0|1.0|8|9|10|40:41:32(qc=5)
REM F 2|1.6|10|12|13|20:21(qc=5)
REM 
CELL 1.54180    3.92390   10.68137   10.68137  111.97003   98.91418   98.91418
LATT -1
SFAC Li O  F  S  Fe 
Li     1  0.0415860000000 -0.2029620000000 -0.4848060000000 1.0  -0.03
Li     1 -0.0415860000000  0.4848060000000  0.2029620000000 1.0  -0.03
Li     1  0.0000000000000  0.4355320000000 -0.4355320000000 1.0   0.00
Li     1  0.5000000000000  0.0499270000000 -0.0499270000000 1.0  -0.03
O      2 -0.4690520000000  0.3338500000000  0.0965470000000 1.0   0.14
O      2 -0.3933530000000  0.2318970000000  0.2757690000000 1.0   0.02
O      2 -0.9218220000000  0.1439490000000  0.0841990000000 1.0   0.07
O      2 -0.7973490000000  0.3859790000000  0.2750100000000 1.0   0.03
O      2  0.4690520000000 -0.0965470000000 -0.3338500000000 1.0   0.14
O      2  0.3933530000000 -0.2757690000000 -0.2318970000000 1.0   0.02
O      2  0.9218220000000 -0.0841990000000 -0.1439490000000 1.0   0.07
O      2  0.7973490000000 -0.2750100000000 -0.3859790000000 1.0   0.03
O      2 -0.4350140000000 -0.5265170000000 -0.1426720000000 1.0   0.19
O      2  0.0923170000000 -0.4996730000000  0.0237960000000 1.0   0.12
O      2 -0.1071310000000 -0.2871780000000  0.0298330000000 1.0   0.21
O      2  0.4350140000000  0.1426720000000  0.5265170000000 1.0   0.19
O      2 -0.0923170000000 -0.0237960000000  0.4996730000000 1.0   0.12
O      2  0.1071310000000 -0.0298330000000  0.2871780000000 1.0   0.21
O      2  0.0000000000000  0.2470990000000 -0.2470990000000 1.0   0.75
O      2  0.5000000000000 -0.0611370000000  0.0611370000000 1.0   0.47
F      3  0.0000000000000 -0.3377870000000  0.3377870000000 1.0   0.13
F      3 -0.5000000000000  0.1532590000000 -0.1532590000000 1.0   0.14
F      3  0.5000000000000  0.4302130000000 -0.4302130000000 1.0   0.05
F      3 -0.5000000000000 -0.2393110000000  0.2393110000000 1.0   0.20
S      4 -0.6450210000000  0.2735630000000  0.1931700000000 1.0   0.00
S      4  0.6450210000000 -0.1931700000000 -0.2735630000000 1.0   0.00
S      4 -0.0570670000000 -0.4337610000000 -0.0777090000000 1.0   0.04
S      4  0.0570670000000  0.0777090000000  0.4337610000000 1.0   0.04
Fe     5 -0.6655580000000  0.3373580000000 -0.0837170000000 1.0   3.94
Fe     5  0.6655580000000  0.0837170000000 -0.3373580000000 1.0   3.94
Fe     5  0.0000000000000 -0.0621380000000  0.0621380000000 1.0   3.49
Fe     5  0.0000000000000 -0.2291420000000  0.2291420000000 1.0   4.02
END
