TITL 4LiFeSO4F-200818-132319-fb6938 0.1514 531.255316 -1.51299496E+004 -16.0000 16.3410 32 (P2) n - 1
REM
REM Run started: Wed, 19 Aug 2020 02:27:39 +0100 in /lustre/scratch/uccabz1/launch_tmp/launcher_2020-08-18-12-23-15-717007
REM CASTEP 20.1 from code version af48c487+ pr-geom-scf-spinfix Tue Jun 2 15:39:59 2020 +0100
REM Functional Perdew Burke Ernzerhof Relativity Koelling-Harmon Dispersion off
REM Cut-off 340.0000 eV Grid scale 1.7500 Gmax 16.5316 1/A FBSC none
REM MP grid 3 3 1 Offset 0.000 0.000 0.000 No. kpts 4 Spacing 0.07
REM Total runtime: 52896.5 s
REM Overall efficiency: 73.0833 %
REM
REM 4LiFeSO4F.cell (79c870615ff1d88195b1fe3fe805288c)
REM
REM compiler GCC version 4.9.2
REM options -cpp -iprefix /lustre/shared/ucl/apps/gcc/4.9.2/bin/../lib/gcc/x86_64-unknown-linux-gnu/4.9.2/ -mtune=corei7 -march=x86-64 -g -Og
REM COMMAND_LINE
REM seed -1450122075 -814733626 338765119 -387855752 -1904239133 211286818 -1045208328 2014959693 524636796 21674451 -184327077 1806284243
REM
REM S 3|1.8|5|6|7|30:31:32(qc=5)
REM O 2|1.5|12|13|15|20:21(qc=5)
REM Li 1|1.3|8|9|10|10U:20(qc=5)
REM Fe 3|2.2|2.0|1.0|8|9|10|40:41:32(qc=5)
REM F 2|1.6|10|12|13|20:21(qc=5)
REM 
CELL 1.54180    4.94453    7.01195   18.91949  125.91416   90.00000   90.00000
LATT -1
SFAC Li O  F  S  Fe 
Li     1 -0.1976590000000  0.1924870000000  0.4721770000000 1.0   0.01
Li     1 -0.1976590000000 -0.1924870000000 -0.4721770000000 1.0   0.01
Li     1 -0.5048630000000 -0.4079030000000  0.1677540000000 1.0   0.01
Li     1 -0.5048630000000  0.4079030000000 -0.1677540000000 1.0   0.01
O      2 -0.6254160000000  0.2027620000000  0.3038170000000 1.0  -0.07
O      2 -0.4003270000000 -0.1481720000000  0.2741340000000 1.0  -0.02
O      2 -0.5689140000000  0.1482930000000  0.4225850000000 1.0  -0.02
O      2 -0.1817710000000  0.2379350000000  0.3710400000000 1.0  -0.07
O      2 -0.6254160000000 -0.2027620000000 -0.3038170000000 1.0  -0.07
O      2 -0.4003270000000  0.1481720000000 -0.2741340000000 1.0  -0.02
O      2 -0.5689140000000 -0.1482930000000 -0.4225850000000 1.0  -0.02
O      2 -0.1817710000000 -0.2379350000000 -0.3710400000000 1.0  -0.07
O      2  0.0685270000000 -0.0211420000000 -0.0943050000000 1.0  -0.09
O      2  0.1879310000000 -0.3664640000000 -0.0953830000000 1.0  -0.07
O      2  0.1158920000000 -0.4175860000000 -0.2315930000000 1.0  -0.07
O      2 -0.2720880000000 -0.3172270000000 -0.1318480000000 1.0  -0.02
O      2  0.0685270000000  0.0211420000000  0.0943050000000 1.0  -0.09
O      2  0.1879310000000  0.3664640000000  0.0953830000000 1.0  -0.07
O      2  0.1158920000000  0.4175860000000  0.2315930000000 1.0  -0.07
O      2 -0.2720880000000  0.3172270000000  0.1318480000000 1.0  -0.02
F      3 -0.5097330000000  0.3371620000000 -0.0853120000000 1.0  -0.12
F      3 -0.5097330000000 -0.3371620000000  0.0853120000000 1.0  -0.12
F      3 -0.0841200000000 -0.2944100000000  0.4219680000000 1.0  -0.11
F      3 -0.0841200000000  0.2944100000000 -0.4219680000000 1.0  -0.11
S      4 -0.4544830000000  0.1037780000000  0.3414770000000 1.0  -0.01
S      4 -0.4544830000000 -0.1037780000000 -0.3414770000000 1.0  -0.01
S      4  0.0154940000000 -0.2809650000000 -0.1393370000000 1.0  -0.02
S      4  0.0154940000000  0.2809650000000  0.1393370000000 1.0  -0.02
Fe     5  0.0540150000000  0.4011130000000  0.3345480000000 1.0  -3.73
Fe     5  0.0540150000000 -0.4011130000000 -0.3345480000000 1.0  -3.73
Fe     5  0.2920980000000 -0.2546380000000  0.0227980000000 1.0  -3.60
Fe     5  0.2920980000000  0.2546380000000 -0.0227980000000 1.0  -3.60
END
