TITL 4LiFeSO4F-200804-102511-fd7faa -0.0238 405.237444 -1.51318466E+004 16.0001 16.1920 32 (Pc) n - 1
REM
REM Run started: Tue, 04 Aug 2020 15:28:58 +0100 in /lustre/scratch/uccabz1/launch_tmp/launcher_2020-08-04-09-25-05-145529
REM CASTEP 20.1 from code version af48c487+ pr-geom-scf-spinfix Tue Jun 2 15:39:59 2020 +0100
REM Functional Perdew Burke Ernzerhof Relativity Koelling-Harmon Dispersion off
REM Cut-off 340.0000 eV Grid scale 1.7500 Gmax 16.5316 1/A FBSC none
REM MP grid 4 2 2 Offset 0.000 0.000 0.000 No. kpts 4 Spacing 0.07
REM Total runtime: 18330.2 s
REM Overall efficiency: 74.7 %
REM
REM 4LiFeSO4F.cell (79c870615ff1d88195b1fe3fe805288c)
REM
REM compiler GCC version 4.9.2
REM options -cpp -iprefix /lustre/shared/ucl/apps/gcc/4.9.2/bin/../lib/gcc/x86_64-unknown-linux-gnu/4.9.2/ -mtune=corei7 -march=x86-64 -g -Og
REM COMMAND_LINE
REM seed 1628419774 1880733926 -193163635 1892622199 145518774 -214552223 870292420 1223187484 1646519317 -1965973054 755889583 830116198
REM
REM S 3|1.8|5|6|7|30:31:32(qc=5)
REM O 2|1.5|12|13|15|20:21(qc=5)
REM Li 1|1.3|8|9|10|10U:20(qc=5)
REM Fe 3|2.2|2.0|1.0|8|9|10|40:41:32(qc=5)
REM F 2|1.6|10|12|13|20:21(qc=5)
REM 
CELL 1.54180    4.56237   10.62364    8.51378   90.00000   90.00000  100.87966
LATT -1
SFAC Li O  F  S  Fe 
Li     1 -0.3197910000000 -0.3105440000000 -0.3556370000000 1.0  -0.02
Li     1  0.1802090000000  0.1894560000000  0.3556370000000 1.0  -0.02
Li     1  0.4635620000000  0.5113900000000 -0.0494970000000 1.0  -0.03
Li     1 -0.0364380000000  0.0113900000000  0.0494970000000 1.0  -0.03
O      2 -0.0404570000000  0.4658160000000  0.2046280000000 1.0   0.06
O      2 -0.1429410000000  0.2288090000000  0.2141910000000 1.0   0.01
O      2 -0.4337840000000  0.3462270000000  0.0386090000000 1.0   0.04
O      2 -0.5068300000000  0.3501200000000  0.3235320000000 1.0   0.06
O      2  0.4595430000000 -0.0341840000000 -0.2046280000000 1.0   0.06
O      2  0.3570590000000 -0.2711910000000 -0.2141910000000 1.0   0.01
O      2  0.0662160000000 -0.1537730000000 -0.0386090000000 1.0   0.04
O      2 -0.0068300000000 -0.1498800000000 -0.3235320000000 1.0   0.06
O      2  0.6378820000000 -0.0913780000000  0.1663830000000 1.0   0.06
O      2  0.1805740000000 -0.1906620000000  0.3030830000000 1.0   0.07
O      2  0.2648600000000  0.0387520000000  0.2315140000000 1.0   0.02
O      2  0.5567840000000 -0.0371320000000  0.4433830000000 1.0   0.04
O      2  0.1378820000000  0.4086220000000 -0.1663830000000 1.0   0.06
O      2 -0.3194260000000  0.3093380000000 -0.3030830000000 1.0   0.07
O      2 -0.2351400000000  0.5387520000000 -0.2315140000000 1.0   0.02
O      2  0.0567840000000  0.4628680000000 -0.4433830000000 1.0   0.04
F      3  0.1083610000000  0.1449000000000 -0.4367670000000 1.0   0.11
F      3 -0.3916390000000 -0.3551000000000  0.4367670000000 1.0   0.11
F      3  0.5145570000000 -0.3831530000000  0.1193340000000 1.0   0.10
F      3  0.0145570000000  0.1168470000000 -0.1193340000000 1.0   0.10
S      4 -0.2765360000000  0.3442950000000  0.1951620000000 1.0   0.01
S      4  0.2234640000000 -0.1557050000000 -0.1951620000000 1.0   0.01
S      4  0.4110470000000 -0.0675140000000  0.2886310000000 1.0   0.02
S      4 -0.0889530000000  0.4324860000000 -0.2886310000000 1.0   0.02
Fe     5  0.3485100000000  0.2499760000000 -0.1581530000000 1.0   3.71
Fe     5 -0.1514900000000 -0.2500240000000  0.1581530000000 1.0   3.71
Fe     5 -0.1968930000000  0.0160460000000 -0.3544130000000 1.0   3.74
Fe     5  0.3031070000000 -0.4839540000000  0.3544130000000 1.0   3.74
END
