TITL 4LiFeSO4F-200818-015132-d09a75 0.0022 432.653340 -1.51316153E+004 16.0000 16.2158 32 (P21) n - 1
REM
REM Run started: Tue, 18 Aug 2020 09:27:50 +0100 in /lustre/scratch/uccabz1/launch_tmp/launcher_2020-08-18-00-51-28-861960
REM CASTEP 20.1 from code version af48c487+ pr-geom-scf-spinfix Tue Jun 2 15:39:59 2020 +0100
REM Functional Perdew Burke Ernzerhof Relativity Koelling-Harmon Dispersion off
REM Cut-off 340.0000 eV Grid scale 1.7500 Gmax 16.5316 1/A FBSC none
REM MP grid 3 3 1 Offset 0.000 0.000 0.000 No. kpts 5 Spacing 0.07
REM Total runtime: 28708.1 s
REM Overall efficiency: 74.8182 %
REM
REM 4LiFeSO4F.cell (79c870615ff1d88195b1fe3fe805288c)
REM
REM compiler GCC version 4.9.2
REM options -cpp -iprefix /lustre/shared/ucl/apps/gcc/4.9.2/bin/../lib/gcc/x86_64-unknown-linux-gnu/4.9.2/ -mtune=corei7 -march=x86-64 -g -Og
REM COMMAND_LINE
REM seed 590904563 2139746669 -245910546 836912830 931937834 -1280278760 -220849346 -679267970 -1913601681 1533579570 -1687282236 -288036420
REM
REM S 3|1.8|5|6|7|30:31:32(qc=5)
REM O 2|1.5|12|13|15|20:21(qc=5)
REM Li 1|1.3|8|9|10|10U:20(qc=5)
REM Fe 3|2.2|2.0|1.0|8|9|10|40:41:32(qc=5)
REM F 2|1.6|10|12|13|20:21(qc=5)
REM 
CELL 1.54180    5.12215    5.14028   16.79367   90.00000   90.00000   78.09415
LATT -1
SFAC Li O  F  S  Fe 
Li     1 -0.0384660000000 -0.2982510000000  0.2377250000000 1.0  -0.01
Li     1  0.0384660000000  0.2982510000000 -0.2622750000000 1.0  -0.01
Li     1 -0.3207790000000  0.0794770000000 -0.4206350000000 1.0  -0.03
Li     1  0.3207790000000 -0.0794770000000  0.0793650000000 1.0  -0.03
O      2 -0.3983160000000 -0.4031200000000 -0.2222040000000 1.0   0.09
O      2 -0.7034900000000 -0.5058860000000 -0.3235270000000 1.0   0.07
O      2 -0.4218210000000 -0.1816040000000 -0.3525790000000 1.0   0.01
O      2 -0.8016790000000 -0.0698670000000 -0.2591000000000 1.0   0.01
O      2  0.3983160000000  0.4031200000000  0.2777960000000 1.0   0.09
O      2  0.7034900000000  0.5058860000000  0.1764730000000 1.0   0.07
O      2  0.4218210000000  0.1816040000000  0.1474210000000 1.0   0.01
O      2  0.8016790000000  0.0698670000000  0.2409000000000 1.0   0.01
O      2 -0.2444060000000  0.2051130000000 -0.0923850000000 1.0   0.06
O      2  0.1818150000000  0.3113330000000 -0.1352430000000 1.0   0.04
O      2  0.1516520000000 -0.1462240000000 -0.0892550000000 1.0   0.05
O      2  0.1120510000000  0.2160360000000  0.0063960000000 1.0   0.05
O      2  0.2444060000000 -0.2051130000000  0.4076150000000 1.0   0.06
O      2 -0.1818150000000 -0.3113330000000  0.3647570000000 1.0   0.04
O      2 -0.1516520000000  0.1462240000000  0.4107450000000 1.0   0.05
O      2 -0.1120510000000 -0.2160360000000  0.5063960000000 1.0   0.05
F      3  0.1049700000000 -0.2759210000000  0.1250050000000 1.0   0.08
F      3 -0.1049700000000  0.2759210000000 -0.3749950000000 1.0   0.08
F      3  0.4242980000000 -0.6658520000000 -0.4946850000000 1.0   0.11
F      3 -0.4242980000000  0.6658520000000  0.0053150000000 1.0   0.11
S      4 -0.5831290000000 -0.2765310000000 -0.2902360000000 1.0   0.01
S      4  0.5831290000000  0.2765310000000  0.2097640000000 1.0   0.01
S      4  0.0522010000000  0.1454670000000 -0.0797850000000 1.0   0.02
S      4 -0.0522010000000 -0.1454670000000  0.4202150000000 1.0   0.02
Fe     5 -0.1095810000000 -0.4947730000000  0.0715610000000 1.0   3.71
Fe     5  0.1095810000000  0.4947730000000 -0.4284390000000 1.0   3.71
Fe     5  0.4791120000000 -0.4499710000000 -0.1104550000000 1.0   3.73
Fe     5 -0.4791120000000  0.4499710000000  0.3895450000000 1.0   3.73
END
