TITL 4LiFeSO4F-200804-080442-ee0eaa 0.0340 431.223138 -1.51308846E+004 16.0000 16.3805 32 (C2) n - 1
REM
REM Run started: Tue, 04 Aug 2020 15:29:54 +0100 in /lustre/scratch/uccabz1/launch_tmp/launcher_2020-08-04-07-04-39-291150
REM CASTEP 20.1 from code version af48c487+ pr-geom-scf-spinfix Tue Jun 2 15:39:59 2020 +0100
REM Functional Perdew Burke Ernzerhof Relativity Koelling-Harmon Dispersion off
REM Cut-off 340.0000 eV Grid scale 1.7500 Gmax 16.5316 1/A FBSC none
REM MP grid 3 3 2 Offset 0.000 0.000 0.000 No. kpts 6 Spacing 0.07
REM Total runtime: 27231.8 s
REM Overall efficiency: 69.7778 %
REM
REM 4LiFeSO4F.cell (79c870615ff1d88195b1fe3fe805288c)
REM
REM compiler GCC version 4.9.2
REM options -cpp -iprefix /lustre/shared/ucl/apps/gcc/4.9.2/bin/../lib/gcc/x86_64-unknown-linux-gnu/4.9.2/ -mtune=corei7 -march=x86-64 -g -Og
REM COMMAND_LINE
REM seed 658299581 1424213623 1447185421 -1493258357 207242365 1049879252 600708548 -443267626 1302734612 2019979347 -977616263 1195639200
REM
REM S 3|1.8|5|6|7|30:31:32(qc=5)
REM O 2|1.5|12|13|15|20:21(qc=5)
REM Li 1|1.3|8|9|10|10U:20(qc=5)
REM Fe 3|2.2|2.0|1.0|8|9|10|40:41:32(qc=5)
REM F 2|1.6|10|12|13|20:21(qc=5)
REM 
CELL 1.54180    7.69881    6.85818   12.37742   70.19609   52.87060   55.85520
LATT -1
SFAC Li O  F  S  Fe 
Li     1  0.0787860000000  0.0526080000000  0.1971990000000 1.0  -0.01
Li     1 -0.1313940000000  0.0526080000000 -0.1971990000000 1.0  -0.01
Li     1  0.2051630000000 -0.3911050000000 -0.3137140000000 1.0  -0.00
Li     1  0.1859410000000 -0.3911050000000  0.3137140000000 1.0  -0.00
O      2 -0.1797390000000 -0.5754830000000  0.2340670000000 1.0   0.07
O      2 -0.3966410000000 -0.2592370000000  0.3883310000000 1.0   0.08
O      2 -0.4481260000000 -0.6073590000000  0.4817330000000 1.0   0.06
O      2 -0.6331400000000 -0.3294860000000  0.3470430000000 1.0   0.01
O      2 -0.2447780000000 -0.5754830000000 -0.2340670000000 1.0   0.07
O      2 -0.3441210000000 -0.2592370000000 -0.3883310000000 1.0   0.08
O      2  0.0554850000000 -0.6073590000000 -0.4817330000000 1.0   0.06
O      2 -0.0373740000000 -0.3294860000000 -0.3470430000000 1.0   0.01
O      2 -0.5674600000000  0.2304550000000  0.2704550000000 1.0   0.05
O      2 -0.3802810000000  0.2630280000000  0.0216350000000 1.0   0.08
O      2 -0.6576950000000  0.0873980000000  0.1610890000000 1.0   0.01
O      2 -0.2390320000000 -0.1140120000000  0.1240870000000 1.0   0.09
O      2  0.3370050000000  0.2304550000000 -0.2704550000000 1.0   0.05
O      2  0.1172530000000  0.2630280000000 -0.0216350000000 1.0   0.08
O      2  0.5702980000000  0.0873980000000 -0.1610890000000 1.0   0.01
O      2  0.3530440000000 -0.1140120000000 -0.1240870000000 1.0   0.09
F      3  0.0143980000000 -0.2796060000000 -0.1326090000000 1.0   0.11
F      3  0.2652070000000 -0.2796060000000  0.1326090000000 1.0   0.11
F      3 -0.1035520000000 -0.0621200000000  0.3661490000000 1.0   0.11
F      3  0.1656720000000 -0.0621200000000 -0.3661490000000 1.0   0.11
S      4 -0.4210830000000 -0.4392160000000  0.3622150000000 1.0   0.02
S      4 -0.1397010000000 -0.4392160000000 -0.3622150000000 1.0   0.02
S      4 -0.4691560000000  0.1155810000000  0.1461730000000 1.0   0.02
S      4  0.3535750000000  0.1155810000000 -0.1461730000000 1.0   0.02
Fe     5 -0.4126430000000  0.0658200000000 -0.4646920000000 1.0   3.60
Fe     5  0.3468220000000  0.0658200000000  0.4646920000000 1.0   3.60
Fe     5 -0.0597770000000 -0.4186370000000  0.0445430000000 1.0   3.69
Fe     5  0.4784140000000 -0.4186370000000 -0.0445430000000 1.0   3.69
END
