TITL 4LiFeSO4F-200804-055903-78fe1c -0.0656 464.641785 -15131.19984094 -0.255203 15.9954 32 (P21) n - 1
REM
REM Run started: Tue, 04 Aug 2020 14:56:41 +0100 in /lustre/scratch/uccabz1/launch_tmp/launcher_2020-08-04-04-59-01-086004
REM CASTEP 20.1 from code version af48c487+ pr-geom-scf-spinfix Tue Jun 2 15:39:59 2020 +0100
REM Functional Perdew Burke Ernzerhof Relativity Koelling-Harmon Dispersion off
REM Cut-off 340.0000 eV Grid scale 1.7500 Gmax 16.5316 1/A FBSC none
REM MP grid 3 2 2 Offset 0.000 0.000 0.000 No. kpts 3 Spacing 0.07
REM Total runtime: 32247 s
REM Overall efficiency: 76.0909 %
REM
REM 4LiFeSO4F.cell (79c870615ff1d88195b1fe3fe805288c)
REM
REM compiler GCC version 4.9.2
REM options -cpp -iprefix /lustre/shared/ucl/apps/gcc/4.9.2/bin/../lib/gcc/x86_64-unknown-linux-gnu/4.9.2/ -mtune=corei7 -march=x86-64 -g -Og
REM COMMAND_LINE
REM seed -674908528 879548667 -780394900 2086211488 -731212427 2063562026 -25106795 -1236348315 -850703570 -381147303 1908826644 1412998562
REM
REM S 3|1.8|5|6|7|30:31:32(qc=5)
REM O 2|1.5|12|13|15|20:21(qc=5)
REM Li 1|1.3|8|9|10|10U:20(qc=5)
REM Fe 3|2.2|2.0|1.0|8|9|10|40:41:32(qc=5)
REM F 2|1.6|10|12|13|20:21(qc=5)
REM 
CELL 1.54180    5.18620    9.88601    9.27935   90.00000   90.00000  102.41078
LATT -1
SFAC Li O  F  S  Fe 
Li     1  0.0548590000000 -0.3754780000000 -0.4971850000000 1.0   0.01
Li     1 -0.0548590000000  0.3754780000000  0.0028150000000 1.0   0.01
Li     1 -0.5849460000000  0.1212100000000 -0.3133430000000 1.0  -0.01
Li     1  0.5849460000000 -0.1212100000000  0.1866570000000 1.0  -0.01
O      2  0.1803790000000 -0.0332540000000  0.5411250000000 1.0   0.04
O      2 -0.1383580000000 -0.0590950000000  0.3388590000000 1.0   0.04
O      2  0.1630830000000 -0.2249930000000  0.3692030000000 1.0   0.01
O      2  0.3239760000000  0.0141730000000  0.2849710000000 1.0   0.06
O      2 -0.1803790000000  0.0332540000000  0.0411250000000 1.0   0.04
O      2  0.1383580000000  0.0590950000000 -0.1611410000000 1.0   0.04
O      2 -0.1630830000000  0.2249930000000 -0.1307970000000 1.0   0.01
O      2 -0.3239760000000 -0.0141730000000 -0.2150290000000 1.0   0.06
O      2  0.0906730000000 -0.2501910000000 -0.1484190000000 1.0   0.04
O      2  0.2154530000000 -0.4578490000000 -0.0467690000000 1.0  -0.02
O      2  0.2243620000000 -0.4196910000000 -0.3102590000000 1.0  -0.04
O      2 -0.1968280000000 -0.4848930000000 -0.1738810000000 1.0  -0.05
O      2 -0.0906730000000  0.2501910000000  0.3515810000000 1.0   0.04
O      2 -0.2154530000000  0.4578490000000  0.4532310000000 1.0  -0.02
O      2 -0.2243620000000  0.4196910000000  0.1897410000000 1.0  -0.04
O      2  0.1968280000000  0.4848930000000  0.3261190000000 1.0  -0.05
F      3 -0.2340720000000 -0.3072090000000 -0.4004910000000 1.0   0.01
F      3  0.2340720000000  0.3072090000000  0.0995090000000 1.0   0.01
F      3  0.4162420000000  0.3033080000000 -0.3508940000000 1.0  -0.14
F      3 -0.4162420000000 -0.3033080000000  0.1491060000000 1.0  -0.14
S      4  0.1294520000000 -0.0810960000000  0.3848140000000 1.0   0.01
S      4 -0.1294520000000  0.0810960000000 -0.1151860000000 1.0   0.01
S      4  0.0844550000000 -0.4014890000000 -0.1688490000000 1.0  -0.01
S      4 -0.0844550000000  0.4014890000000  0.3311510000000 1.0  -0.01
Fe     5  0.0565470000000  0.1303420000000  0.2095120000000 1.0   3.67
Fe     5 -0.0565470000000 -0.1303420000000 -0.2904880000000 1.0   3.67
Fe     5 -0.4482340000000  0.4942720000000 -0.3542580000000 1.0  -3.76
Fe     5  0.4482340000000 -0.4942720000000  0.1457420000000 1.0  -3.76
END
