TITL 4LiFeSO4F-200818-124639-94eedb -0.0665 459.522995 -1.51311722E+004 -16.0000 16.2900 32 (Cc) n - 1
REM
REM Run started: Wed, 19 Aug 2020 12:54:54 +0100 in /lustre/scratch/uccabz1/launch_tmp/launcher_2020-08-18-13-57-45-579091
REM CASTEP 20.1 from code version af48c487+ pr-geom-scf-spinfix Tue Jun 2 15:39:59 2020 +0100
REM Functional Perdew Burke Ernzerhof Relativity Koelling-Harmon Dispersion off
REM Cut-off 340.0000 eV Grid scale 1.7500 Gmax 16.5316 1/A FBSC none
REM MP grid 3 3 2 Offset 0.000 0.000 0.000 No. kpts 8 Spacing 0.07
REM Total runtime: 86312.5 s
REM Overall efficiency: 95.8333 %
REM
REM
REM
REM compiler GCC version 4.9.2
REM options -cpp -iprefix /lustre/shared/ucl/apps/gcc/4.9.2/bin/../lib/gcc/x86_64-unknown-linux-gnu/4.9.2/ -mtune=corei7 -march=x86-64 -g -Og
REM COMMAND_LINE
REM seed 1657292765 -597386686 -993464885 -62567210 1650677352 -232050704 -10830923 720618438 -1736501662 -1654007887 1451437685 -1070299424
REM
REM S 3|1.8|5|6|7|30:31:32(qc=5)
REM O 2|1.5|12|13|15|20:21(qc=5)
REM Li 1|1.3|8|9|10|10U:20(qc=5)
REM Fe 3|2.2|2.0|1.0|8|9|10|40:41:32(qc=5)
REM F 2|1.6|10|12|13|20:21(qc=5)
REM 
CELL 1.54180    5.62122    7.57873   12.11261  110.85008  106.86522   79.30061
LATT -1
SFAC Li O  F  S  Fe 
Li     1 -0.2537290000000 -0.3139620000000 -0.3622630000000 1.0   0.03
Li     1 -0.3914650000000  0.0483020000000  0.3622630000000 1.0   0.03
Li     1 -0.1494470000000  0.3294950000000 -0.0024900000000 1.0   0.01
Li     1  0.3530430000000  0.3319850000000  0.0024900000000 1.0   0.01
O      2  0.2068640000000 -0.4172470000000  0.3338540000000 1.0  -0.06
O      2  0.4737160000000 -0.2056590000000  0.5181470000000 1.0  -0.02
O      2  0.3935830000000 -0.1696230000000  0.3149300000000 1.0  -0.07
O      2  0.6626640000000 -0.4433430000000  0.3574560000000 1.0  -0.04
O      2 -0.6269900000000  0.2488990000000 -0.3338540000000 1.0  -0.06
O      2 -0.5444310000000  0.2761930000000 -0.5181470000000 1.0  -0.02
O      2 -0.4213480000000  0.5154470000000 -0.3149300000000 1.0  -0.07
O      2 -0.1947910000000  0.1992010000000 -0.3574560000000 1.0  -0.04
O      2 -0.3170670000000  0.2379350000000  0.0839570000000 1.0  -0.01
O      2 -0.0083000000000  0.2057570000000  0.2704720000000 1.0  -0.07
O      2 -0.1284100000000 -0.0730630000000  0.0972740000000 1.0  -0.09
O      2 -0.4347070000000  0.1067030000000  0.2171360000000 1.0  -0.01
O      2  0.0989760000000  0.1539770000000 -0.0839570000000 1.0  -0.01
O      2  0.2212280000000 -0.0647150000000 -0.2704720000000 1.0  -0.07
O      2  0.2743160000000 -0.1703370000000 -0.0972740000000 1.0  -0.09
O      2 -0.1518430000000 -0.1104330000000 -0.2171360000000 1.0  -0.01
F      3  0.0958260000000 -0.4895930000000  0.0618060000000 1.0  -0.09
F      3  0.5340200000000  0.4486010000000 -0.0618060000000 1.0  -0.09
F      3  0.0060560000000  0.5419140000000 -0.4311040000000 1.0  -0.12
F      3 -0.0628400000000 -0.0269820000000  0.4311040000000 1.0  -0.12
S      4  0.4410470000000 -0.3128810000000  0.3852680000000 1.0  -0.01
S      4 -0.4442210000000  0.3018510000000 -0.3852680000000 1.0  -0.01
S      4 -0.2304570000000  0.1234360000000  0.1687760000000 1.0  -0.01
S      4  0.1007670000000 -0.0453400000000 -0.1687760000000 1.0  -0.01
Fe     5  0.0402580000000 -0.5546940000000  0.4076120000000 1.0  -3.76
Fe     5  0.1326460000000  0.0376940000000 -0.4076120000000 1.0  -3.76
Fe     5  0.4345530000000 -0.4102950000000 -0.1724310000000 1.0  -3.65
Fe     5  0.1069840000000 -0.2378640000000  0.1724310000000 1.0  -3.65
END
