TITL 4LiFeSO4F-200818-001259-4b39d1 0.0351 411.863008 -1.51304781E+004 16.0000 16.1944 32 (P21) n - 1
REM
REM Run started: Tue, 18 Aug 2020 03:18:49 +0100 in /lustre/scratch/uccabz1/launch_tmp/launcher_2020-08-17-23-12-57-447881
REM CASTEP 20.1 from code version af48c487+ pr-geom-scf-spinfix Tue Jun 2 15:39:59 2020 +0100
REM Functional Perdew Burke Ernzerhof Relativity Koelling-Harmon Dispersion off
REM Cut-off 340.0000 eV Grid scale 1.7500 Gmax 16.5316 1/A FBSC none
REM MP grid 3 2 2 Offset 0.000 0.000 0.000 No. kpts 3 Spacing 0.07
REM Total runtime: 11226 s
REM Overall efficiency: 76.6667 %
REM
REM 4LiFeSO4F.cell (79c870615ff1d88195b1fe3fe805288c)
REM
REM compiler GCC version 4.9.2
REM options -cpp -iprefix /lustre/shared/ucl/apps/gcc/4.9.2/bin/../lib/gcc/x86_64-unknown-linux-gnu/4.9.2/ -mtune=corei7 -march=x86-64 -g -Og
REM COMMAND_LINE
REM seed 1010801298 -1703127170 92648311 1970089753 -472692970 1127462718 -1804886765 803956186 -122562483 -1221369630 1860075284 2131495034
REM
REM S 3|1.8|5|6|7|30:31:32(qc=5)
REM O 2|1.5|12|13|15|20:21(qc=5)
REM Li 1|1.3|8|9|10|10U:20(qc=5)
REM Fe 3|2.2|2.0|1.0|8|9|10|40:41:32(qc=5)
REM F 2|1.6|10|12|13|20:21(qc=5)
REM 
CELL 1.54180    5.44104    8.31841    9.67977   90.00000  109.93462   90.00000
LATT -1
SFAC Li O  F  S  Fe 
Li     1 -0.5602370000000  0.1370680000000  0.3030710000000 1.0  -0.02
Li     1  0.5602370000000 -0.3629320000000 -0.3030710000000 1.0  -0.02
Li     1  0.0513870000000  0.4468300000000  0.2010480000000 1.0  -0.03
Li     1 -0.0513870000000 -0.0531700000000 -0.2010480000000 1.0  -0.03
O      2 -0.0281640000000  0.0410320000000  0.3168790000000 1.0   0.06
O      2 -0.1877640000000 -0.0299380000000  0.0549330000000 1.0   0.05
O      2  0.0694430000000  0.2141010000000  0.1386170000000 1.0   0.04
O      2 -0.3865840000000  0.1965970000000  0.1457050000000 1.0   0.03
O      2  0.0281640000000 -0.4589680000000 -0.3168790000000 1.0   0.06
O      2  0.1877640000000 -0.5299380000000 -0.0549330000000 1.0   0.05
O      2 -0.0694430000000 -0.2858990000000 -0.1386170000000 1.0   0.04
O      2  0.3865840000000 -0.3034030000000 -0.1457050000000 1.0   0.03
O      2  0.1679310000000 -0.3175360000000  0.2303980000000 1.0   0.03
O      2  0.3375370000000 -0.2747270000000  0.4967930000000 1.0   0.06
O      2  0.4622490000000 -0.0877680000000  0.3302040000000 1.0   0.01
O      2  0.6295500000000 -0.3640880000000  0.3645050000000 1.0   0.07
O      2 -0.1679310000000  0.1824640000000 -0.2303980000000 1.0   0.03
O      2 -0.3375370000000  0.2252730000000 -0.4967930000000 1.0   0.06
O      2 -0.4622490000000  0.4122320000000 -0.3302040000000 1.0   0.01
O      2 -0.6295500000000  0.1359120000000 -0.3645050000000 1.0   0.07
F      3  0.2577660000000  0.0207230000000 -0.0781510000000 1.0   0.13
F      3 -0.2577660000000  0.5207230000000  0.0781510000000 1.0   0.13
F      3 -0.0816350000000 -0.0997730000000 -0.3924090000000 1.0   0.11
F      3  0.0816350000000  0.4002270000000  0.3924090000000 1.0   0.11
S      4 -0.1392630000000  0.1063260000000  0.1636580000000 1.0   0.02
S      4  0.1392630000000 -0.3936740000000 -0.1636580000000 1.0   0.02
S      4  0.4007930000000 -0.2553650000000  0.3538140000000 1.0   0.01
S      4 -0.4007930000000  0.2446350000000 -0.3538140000000 1.0   0.01
Fe     5  0.0004710000000  0.5967840000000  0.4747370000000 1.0   3.73
Fe     5 -0.0004710000000  0.0967840000000 -0.4747370000000 1.0   3.73
Fe     5  0.2282360000000  0.2370650000000 -0.0446820000000 1.0   3.72
Fe     5 -0.2282360000000 -0.2629350000000  0.0446820000000 1.0   3.72
END
