TITL 4LiFeSO4F-200818-155311-7c6e6e -0.0152 409.492699 -1.51307825E+004 15.9995 16.1939 32 (P2) n - 1
REM
REM Run started: Tue, 18 Aug 2020 18:57:55 +0100 in /scratch/scratch/uccabz1/launch_tmp/launcher_2020-08-18-14-53-01-418847
REM CASTEP 19.11| from code version Version unavailable
REM Functional Perdew Burke Ernzerhof Relativity Koelling-Harmon Dispersion off
REM Cut-off 340.0000 eV Grid scale 1.7500 Gmax 16.5316 1/A FBSC none
REM MP grid 3 2 2 Offset 0.000 0.000 0.000 No. kpts 4 Spacing 0.07
REM Total runtime: 11157.6 s
REM Overall efficiency: 74.2222 %
REM
REM 4LiFeSO4F.cell (79c870615ff1d88195b1fe3fe805288c)
REM
REM compiler GCC version 4.9.2
REM options -cpp -iprefix /scratch/UCL/applications/gcc/4.9.2/bin/../lib/gcc/x86_64-unknown-linux-gnu/4.9.2/ -mtune=corei7 -march=x86-64 -g -O2
REM COMMAND_LINE
REM seed -420897075 -1235743582 1147456193 -418105237 -963124472 -1761333967 656822765 132532525 1407873399 -143838307 -2085208172 1935274322
REM
REM S 3|1.8|5|6|7|30:31:32(qc=5)
REM O 2|1.5|12|13|15|20:21(qc=5)
REM Li 1|1.3|8|9|10|10U:20(qc=5)
REM Fe 3|2.2|2.0|1.0|8|9|10|40:41:32(qc=5)
REM F 2|1.6|10|12|13|20:21(qc=5)
REM 
CELL 1.54180    6.19235    8.68212    8.67613  118.61140   90.00000   90.00000
LATT -1
SFAC Li O  F  S  Fe 
Li     1 -0.3463390000000  0.2180800000000 -0.1471190000000 1.0  -0.02
Li     1 -0.3463390000000 -0.2180800000000  0.1471190000000 1.0  -0.02
Li     1  0.1544630000000 -0.1464490000000  0.2103700000000 1.0  -0.02
Li     1  0.1544630000000  0.1464490000000 -0.2103700000000 1.0  -0.02
O      2  0.6004340000000 -0.5835860000000  0.1219280000000 1.0   0.04
O      2  0.4656180000000 -0.4038610000000  0.4191620000000 1.0   0.07
O      2  0.2673890000000 -0.6680130000000  0.2163850000000 1.0   0.08
O      2  0.2730400000000 -0.3998320000000  0.1752870000000 1.0   0.02
O      2  0.6004340000000  0.5835860000000 -0.1219280000000 1.0   0.04
O      2  0.4656180000000  0.4038610000000 -0.4191620000000 1.0   0.07
O      2  0.2673890000000  0.6680130000000 -0.2163850000000 1.0   0.08
O      2  0.2730400000000  0.3998320000000 -0.1752870000000 1.0   0.02
O      2 -0.2275970000000 -0.1748960000000  0.4011340000000 1.0   0.02
O      2 -0.2331650000000 -0.2174900000000  0.6685310000000 1.0   0.08
O      2  0.0995550000000 -0.1212090000000  0.5855970000000 1.0   0.04
O      2 -0.0330340000000 -0.4182970000000  0.4044490000000 1.0   0.07
O      2 -0.2275970000000  0.1748960000000 -0.4011340000000 1.0   0.02
O      2 -0.2331650000000  0.2174900000000 -0.6685310000000 1.0   0.08
O      2  0.0995550000000  0.1212090000000 -0.5855970000000 1.0   0.04
O      2 -0.0330340000000  0.4182970000000 -0.4044490000000 1.0   0.07
F      3  0.4297380000000 -0.0528690000000  0.2009520000000 1.0   0.08
F      3  0.4297380000000  0.0528690000000 -0.2009520000000 1.0   0.08
F      3 -0.0727890000000 -0.2017170000000  0.0519010000000 1.0   0.08
F      3 -0.0727890000000  0.2017170000000 -0.0519010000000 1.0   0.08
S      4  0.3987630000000 -0.5088280000000  0.2310650000000 1.0   0.01
S      4  0.3987630000000  0.5088280000000 -0.2310650000000 1.0   0.01
S      4 -0.1012990000000 -0.2307100000000  0.5098230000000 1.0   0.01
S      4 -0.1012990000000  0.2307100000000 -0.5098230000000 1.0   0.01
Fe     5 -0.0866870000000 -0.3513890000000 -0.2020720000000 1.0   3.73
Fe     5 -0.0866870000000  0.3513890000000  0.2020720000000 1.0   3.73
Fe     5  0.4135820000000 -0.2007380000000 -0.3508730000000 1.0   3.73
Fe     5  0.4135820000000  0.2007380000000  0.3508730000000 1.0   3.73
END
