TITL 4LiFeSO4F-200818-045200-233dcb 0.0379 581.334785 -1.51290087E+004 16.0000 16.2213 32 (Pc) n - 1
REM
REM Run started: Tue, 18 Aug 2020 22:48:24 +0100 in /scratch/scratch/uccabz1/launch_tmp/launcher_2020-08-18-19-14-10-523317
REM CASTEP 19.11| from code version Version unavailable
REM Functional Perdew Burke Ernzerhof Relativity Koelling-Harmon Dispersion off
REM Cut-off 340.0000 eV Grid scale 1.7500 Gmax 16.5316 1/A FBSC none
REM MP grid 3 3 1 Offset 0.000 0.000 0.000 No. kpts 5 Spacing 0.07
REM Total runtime: 14838.8 s
REM Overall efficiency: 79 %
REM
REM
REM
REM compiler GCC version 4.9.2
REM options -cpp -iprefix /lustre/shared/ucl/apps/gcc/4.9.2/bin/../lib/gcc/x86_64-unknown-linux-gnu/4.9.2/ -mtune=corei7 -march=x86-64 -g -Og
REM COMMAND_LINE
REM seed -1505181400 684424086 -1478150147 -1641283465 1847398786 739416080 -1311974564 866406559 226213177 875151557 632229427 -1534733774
REM
REM S 3|1.8|5|6|7|30:31:32(qc=5)
REM O 2|1.5|12|13|15|20:21(qc=5)
REM Li 1|1.3|8|9|10|10U:20(qc=5)
REM Fe 3|2.2|2.0|1.0|8|9|10|40:41:32(qc=5)
REM F 2|1.6|10|12|13|20:21(qc=5)
REM 
CELL 1.54180    5.40381    7.15844   15.14404   90.00000   90.00000   82.90918
LATT -1
SFAC Li O  F  S  Fe 
Li     1  0.5182850000000 -0.4792320000000  0.4509970000000 1.0  -0.01
Li     1  0.0182850000000  0.0207680000000 -0.4509970000000 1.0  -0.01
Li     1  0.4884750000000  0.4161960000000  0.1223010000000 1.0  -0.03
Li     1 -0.0115250000000 -0.0838040000000 -0.1223010000000 1.0  -0.03
O      2  0.2592030000000 -0.3903420000000  0.0890550000000 1.0   0.01
O      2  0.5260770000000 -0.1354410000000  0.0687990000000 1.0   0.09
O      2  0.0863550000000 -0.0593860000000  0.1065750000000 1.0   0.09
O      2  0.2151020000000 -0.1843780000000 -0.0413040000000 1.0   0.02
O      2 -0.2407970000000  0.1096580000000 -0.0890550000000 1.0   0.01
O      2  0.0260770000000  0.3645590000000 -0.0687990000000 1.0   0.09
O      2 -0.4136450000000  0.4406140000000 -0.1065750000000 1.0   0.09
O      2 -0.2848980000000  0.3156220000000  0.0413040000000 1.0   0.02
O      2  0.2966390000000  0.0325400000000 -0.3846780000000 1.0   0.01
O      2  0.5421260000000 -0.1681920000000 -0.2760290000000 1.0   0.06
O      2  0.1016630000000 -0.0624000000000 -0.2472110000000 1.0   0.06
O      2  0.4079530000000  0.1675070000000 -0.2440820000000 1.0   0.05
O      2 -0.2033610000000 -0.4674600000000  0.3846780000000 1.0   0.01
O      2  0.0421260000000 -0.6681920000000  0.2760290000000 1.0   0.06
O      2 -0.3983370000000 -0.5624000000000  0.2472110000000 1.0   0.06
O      2 -0.0920470000000 -0.3324930000000  0.2440820000000 1.0   0.05
F      3  0.0737100000000  0.5275970000000 -0.2515420000000 1.0   0.13
F      3  0.5737100000000  0.0275970000000  0.2515420000000 1.0   0.13
F      3  0.3781140000000  0.3166760000000  0.4312830000000 1.0   0.08
F      3 -0.1218860000000 -0.1833240000000 -0.4312830000000 1.0   0.08
S      4  0.2701050000000 -0.1981560000000  0.0542290000000 1.0   0.01
S      4 -0.2298950000000  0.3018440000000 -0.0542290000000 1.0   0.01
S      4  0.3407820000000 -0.0050200000000 -0.2886720000000 1.0   0.01
S      4 -0.1592180000000 -0.5050200000000  0.2886720000000 1.0   0.01
Fe     5 -0.2214280000000 -0.1244120000000  0.1578380000000 1.0   3.73
Fe     5  0.2785720000000  0.3755880000000 -0.1578380000000 1.0   3.73
Fe     5 -0.1028050000000 -0.2542540000000 -0.3066410000000 1.0   3.68
Fe     5  0.3971950000000  0.2457460000000  0.3066410000000 1.0   3.68
END
