TITL 4LiFeSO4F-200804-073637-e3c064 0.0044 435.752715 -1.51313592E+004 16.0000 16.2721 32 (C2) n - 1
REM
REM Run started: Wed, 05 Aug 2020 01:58:04 +0100 in /lustre/scratch/uccabz1/launch_tmp/launcher_2020-08-04-15-05-07-708357
REM CASTEP 20.1 from code version af48c487+ pr-geom-scf-spinfix Tue Jun 2 15:39:59 2020 +0100
REM Functional Perdew Burke Ernzerhof Relativity Koelling-Harmon Dispersion off
REM Cut-off 340.0000 eV Grid scale 1.7500 Gmax 16.5316 1/A FBSC none
REM MP grid 3 2 3 Offset 0.000 0.000 0.000 No. kpts 9 Spacing 0.07
REM Total runtime: 37038.2 s
REM Overall efficiency: 97.625 %
REM
REM
REM
REM compiler GCC version 4.9.2
REM options -cpp -iprefix /lustre/shared/ucl/apps/gcc/4.9.2/bin/../lib/gcc/x86_64-unknown-linux-gnu/4.9.2/ -mtune=corei7 -march=x86-64 -g -Og
REM COMMAND_LINE
REM seed 1800176268 624148399 -1145749532 1536354508 2096029991 -1230572473 94099275 1556252176 -1409306280 1829285905 1372136347 127778878
REM
REM S 3|1.8|5|6|7|30:31:32(qc=5)
REM O 2|1.5|12|13|15|20:21(qc=5)
REM Li 1|1.3|8|9|10|10U:20(qc=5)
REM Fe 3|2.2|2.0|1.0|8|9|10|40:41:32(qc=5)
REM F 2|1.6|10|12|13|20:21(qc=5)
REM 
CELL 1.54180    6.49703   10.23941    8.31358  128.01182   90.02203   90.00000
LATT -1
SFAC Li O  F  S  Fe 
Li     1  0.3978320000000 -0.1981920000000 -0.3131520000000 1.0  -0.01
Li     1 -0.3978320000000  0.1149600000000  0.3131520000000 1.0  -0.01
Li     1 -0.2077570000000 -0.3385630000000  0.5292780000000 1.0  -0.02
Li     1  0.2077570000000  0.1321590000000 -0.5292780000000 1.0  -0.02
O      2 -0.2519460000000  0.1749830000000  0.1582390000000 1.0   0.01
O      2 -0.4361080000000  0.4408440000000  0.3335330000000 1.0   0.06
O      2 -0.2624970000000  0.3202450000000  0.0044420000000 1.0   0.04
O      2 -0.0689290000000  0.4443070000000  0.3198690000000 1.0   0.05
O      2  0.2519460000000  0.0167440000000 -0.1582390000000 1.0   0.01
O      2  0.4361080000000  0.1073120000000 -0.3335330000000 1.0   0.06
O      2  0.2624970000000  0.3158030000000 -0.0044420000000 1.0   0.04
O      2  0.0689290000000  0.1244390000000 -0.3198690000000 1.0   0.05
O      2  0.2099210000000 -0.3785990000000 -0.3736000000000 1.0   0.04
O      2  0.2198640000000 -0.6570660000000 -0.4703740000000 1.0   0.02
O      2 -0.0279230000000 -0.4500630000000 -0.2083820000000 1.0   0.04
O      2  0.3399020000000 -0.4188910000000 -0.1280010000000 1.0   0.09
O      2 -0.2099210000000 -0.0049990000000  0.3736000000000 1.0   0.04
O      2 -0.2198640000000 -0.1866920000000  0.4703740000000 1.0   0.02
O      2  0.0279230000000 -0.2416810000000  0.2083820000000 1.0   0.04
O      2 -0.3399020000000 -0.2908900000000  0.1280010000000 1.0   0.09
F      3 -0.3392390000000  0.3164730000000 -0.3757700000000 1.0   0.11
F      3  0.3392390000000 -0.3077580000000  0.3757700000000 1.0   0.11
F      3  0.3653190000000 -0.0239120000000  0.2489410000000 1.0   0.07
F      3 -0.3653190000000 -0.2728530000000 -0.2489410000000 1.0   0.07
S      4 -0.2556320000000  0.3362310000000  0.1958570000000 1.0   0.02
S      4  0.2556320000000  0.1403740000000 -0.1958570000000 1.0   0.02
S      4  0.1790010000000 -0.4796740000000 -0.2977070000000 1.0   0.01
S      4 -0.1790010000000 -0.1819660000000  0.2977070000000 1.0   0.01
Fe     5  0.2505130000000  0.4609360000000  0.3039180000000 1.0   3.73
Fe     5 -0.2505130000000  0.1570180000000 -0.3039180000000 1.0   3.73
Fe     5  0.3443190000000 -0.2425320000000  0.1944360000000 1.0   3.74
Fe     5 -0.3443190000000 -0.4369690000000 -0.1944360000000 1.0   3.74
END
