TITL 4LiFeSO4F-200804-082412-e27ca7 0.0979 575.157603 -1.51270590E+004 15.9999 16.3713 32 (Ima2) n - 1
REM
REM Run started: Tue, 04 Aug 2020 20:47:25 +0100 in /lustre/scratch/uccabz1/launch_tmp/launcher_2020-08-04-16-54-55-840657
REM CASTEP 20.1 from code version af48c487+ pr-geom-scf-spinfix Tue Jun 2 15:39:59 2020 +0100
REM Functional Perdew Burke Ernzerhof Relativity Koelling-Harmon Dispersion off
REM Cut-off 340.0000 eV Grid scale 1.7500 Gmax 16.5316 1/A FBSC none
REM MP grid 2 3 3 Offset 0.000 0.000 0.000 No. kpts 6 Spacing 0.07
REM Total runtime: 15721.8 s
REM Overall efficiency: 71 %
REM
REM
REM
REM compiler GCC version 4.9.2
REM options -cpp -iprefix /lustre/shared/ucl/apps/gcc/4.9.2/bin/../lib/gcc/x86_64-unknown-linux-gnu/4.9.2/ -mtune=corei7 -march=x86-64 -g -Og
REM COMMAND_LINE
REM seed 2135712770 1827020694 159386229 -1286803035 1429562582 250359903 1910061143 33773142 -401910049 -797018664 -794468074 -673172235
REM
REM S 3|1.8|5|6|7|30:31:32(qc=5)
REM O 2|1.5|12|13|15|20:21(qc=5)
REM Li 1|1.3|8|9|10|10U:20(qc=5)
REM Fe 3|2.2|2.0|1.0|8|9|10|40:41:32(qc=5)
REM F 2|1.6|10|12|13|20:21(qc=5)
REM 
CELL 1.54180   10.64823    9.56532    9.56532   48.13574   56.17856   56.17856
LATT -1
SFAC Li O  F  S  Fe 
Li     1  0.1481330000000 -0.2700050000000 -0.2299950000000 1.0  -0.01
Li     1  0.6481330000000 -0.7299950000000  0.2299950000000 1.0  -0.01
Li     1  0.5181920000000 -0.0483740000000 -0.4516260000000 1.0  -0.02
Li     1  0.0181920000000  0.0483740000000  0.4516260000000 1.0  -0.02
O      2 -0.3361550000000  0.4909330000000  0.2040710000000 1.0   0.00
O      2 -0.2208550000000  0.6200200000000  0.2504700000000 1.0   0.04
O      2 -0.1897050000000  0.2668300000000  0.4497140000000 1.0   0.01
O      2  0.3588480000000 -0.4909330000000 -0.2040710000000 1.0   0.00
O      2  0.6496340000000 -0.6200200000000 -0.2504700000000 1.0   0.04
O      2  0.5268390000000 -0.2668300000000 -0.4497140000000 1.0   0.01
O      2  0.1638450000000 -0.2959290000000 -0.0090670000000 1.0   0.00
O      2  0.2791450000000 -0.2495300000000  0.1200200000000 1.0   0.04
O      2  0.3102950000000 -0.0502860000000 -0.2331700000000 1.0   0.01
O      2 -0.1411520000000  0.2959290000000  0.0090670000000 1.0   0.00
O      2  0.1496340000000  0.2495300000000 -0.1200200000000 1.0   0.04
O      2  0.0268390000000  0.0502860000000  0.2331700000000 1.0   0.01
O      2  0.0390700000000 -0.0000000000000 -0.0000000000000 1.0  -0.00
O      2 -0.4609300000000  0.5000000000000  0.5000000000000 1.0  -0.00
O      2 -0.4204450000000 -0.0000000000000  0.0000000000000 1.0   0.59
O      2  0.0795550000000 -0.5000000000000  0.5000000000000 1.0   0.59
F      3 -0.3382780000000  0.0255160000000  0.2869090000000 1.0   0.06
F      3 -0.0258530000000 -0.0255160000000 -0.2869090000000 1.0   0.06
F      3  0.1617220000000 -0.2130910000000  0.5255160000000 1.0   0.06
F      3 -0.5258530000000  0.2130910000000 -0.5255160000000 1.0   0.06
S      4 -0.2868550000000  0.4676060000000  0.3351710000000 1.0   0.01
S      4  0.5159220000000 -0.4676060000000 -0.3351710000000 1.0   0.01
S      4  0.2131450000000 -0.1648290000000 -0.0323940000000 1.0   0.01
S      4  0.0159220000000  0.1648290000000  0.0323940000000 1.0   0.01
Fe     5 -0.2484320000000  0.0857910000000 -0.1790440000000 1.0   3.60
Fe     5 -0.3416850000000 -0.0857910000000  0.1790440000000 1.0   3.60
Fe     5  0.2515680000000 -0.6790440000000 -0.4142090000000 1.0   3.60
Fe     5  0.1583150000000 -0.3209560000000  0.4142090000000 1.0   3.60
END
