TITL 4LiFeSO4F-200804-074857-f1b46d 0.0336 499.158996 -1.51308620E+004 15.9999 16.2371 32 (P21) n - 1
REM
REM Run started: Tue, 04 Aug 2020 12:55:28 +0100 in /lustre/scratch/uccabz1/launch_tmp/launcher_2020-08-04-06-48-54-927765
REM CASTEP 20.1 from code version af48c487+ pr-geom-scf-spinfix Tue Jun 2 15:39:59 2020 +0100
REM Functional Perdew Burke Ernzerhof Relativity Koelling-Harmon Dispersion off
REM Cut-off 340.0000 eV Grid scale 1.7500 Gmax 16.5316 1/A FBSC none
REM MP grid 3 2 2 Offset 0.000 0.000 0.000 No. kpts 3 Spacing 0.07
REM Total runtime: 18482 s
REM Overall efficiency: 75.75 %
REM
REM 4LiFeSO4F.cell (79c870615ff1d88195b1fe3fe805288c)
REM
REM compiler GCC version 4.9.2
REM options -cpp -iprefix /lustre/shared/ucl/apps/gcc/4.9.2/bin/../lib/gcc/x86_64-unknown-linux-gnu/4.9.2/ -mtune=corei7 -march=x86-64 -g -Og
REM COMMAND_LINE
REM seed 704684067 -427431177 -1736656719 -2083440576 -1482762441 818933230 -224611011 -1183886809 390944125 1168372594 794969926 274173514
REM
REM S 3|1.8|5|6|7|30:31:32(qc=5)
REM O 2|1.5|12|13|15|20:21(qc=5)
REM Li 1|1.3|8|9|10|10U:20(qc=5)
REM Fe 3|2.2|2.0|1.0|8|9|10|40:41:32(qc=5)
REM F 2|1.6|10|12|13|20:21(qc=5)
REM 
CELL 1.54180    4.95065    7.28261   14.03232   90.00000   90.00000   99.37465
LATT -1
SFAC Li O  F  S  Fe 
Li     1  0.3295050000000  0.3849560000000  0.3995710000000 1.0  -0.02
Li     1 -0.3295050000000 -0.3849560000000 -0.1004290000000 1.0  -0.02
Li     1  0.2042750000000 -0.1883420000000 -0.3034260000000 1.0  -0.02
Li     1 -0.2042750000000  0.1883420000000  0.1965740000000 1.0  -0.02
O      2  0.3875000000000 -0.2151840000000 -0.0615620000000 1.0   0.06
O      2 -0.0301130000000 -0.2171120000000 -0.1602140000000 1.0   0.01
O      2  0.3954100000000 -0.0238950000000 -0.2066310000000 1.0   0.02
O      2  0.1586630000000  0.0545430000000 -0.0589250000000 1.0   0.06
O      2 -0.3875000000000  0.2151840000000  0.4384380000000 1.0   0.06
O      2  0.0301130000000  0.2171120000000  0.3397860000000 1.0   0.01
O      2 -0.3954100000000  0.0238950000000  0.2933690000000 1.0   0.02
O      2 -0.1586630000000 -0.0545430000000  0.4410750000000 1.0   0.06
O      2 -0.2527400000000 -0.3542680000000  0.0481000000000 1.0   0.06
O      2  0.0756860000000 -0.5732320000000  0.0494290000000 1.0   0.06
O      2 -0.2169620000000 -0.5484000000000  0.1906460000000 1.0   0.01
O      2  0.1546460000000 -0.2932120000000  0.1504700000000 1.0   0.09
O      2  0.2527400000000  0.3542680000000 -0.4519000000000 1.0   0.06
O      2 -0.0756860000000  0.5732320000000 -0.4505710000000 1.0   0.06
O      2  0.2169620000000  0.5484000000000 -0.3093540000000 1.0   0.01
O      2 -0.1546460000000  0.2932120000000 -0.3495300000000 1.0   0.09
F      3 -0.3153330000000  0.3669130000000 -0.1082410000000 1.0   0.13
F      3  0.3153330000000 -0.3669130000000  0.3917590000000 1.0   0.13
F      3  0.2865830000000 -0.0653980000000 -0.4196660000000 1.0   0.09
F      3 -0.2865830000000  0.0653980000000  0.0803340000000 1.0   0.09
S      4  0.2247610000000 -0.0997110000000 -0.1238880000000 1.0   0.01
S      4 -0.2247610000000  0.0997110000000  0.3761120000000 1.0   0.01
S      4 -0.0631170000000 -0.4469950000000  0.1112250000000 1.0   0.01
S      4  0.0631170000000  0.4469950000000 -0.3887750000000 1.0   0.01
Fe     5  0.1095000000000 -0.2183670000000  0.4577040000000 1.0   3.72
Fe     5 -0.1095000000000  0.2183670000000 -0.0422960000000 1.0   3.72
Fe     5 -0.4806080000000  0.1806700000000 -0.4172630000000 1.0   3.70
Fe     5  0.4806080000000 -0.1806700000000  0.0827370000000 1.0   3.70
END
