TITL 4LiFeSO4F-200818-140509-d13660 0.0595 483.515273 -1.51289208E+004 -15.9976 16.2129 32 (Pc) n - 1
REM
REM Run started: Wed, 19 Aug 2020 10:37:23 +0100 in /lustre/scratch/uccabz1/launch_tmp/launcher_2020-08-18-19-15-17-715894
REM CASTEP 20.1 from code version af48c487+ pr-geom-scf-spinfix Tue Jun 2 15:39:59 2020 +0100
REM Functional Perdew Burke Ernzerhof Relativity Koelling-Harmon Dispersion off
REM Cut-off 340.0000 eV Grid scale 1.7500 Gmax 16.5316 1/A FBSC none
REM MP grid 4 3 1 Offset 0.000 0.000 0.000 No. kpts 6 Spacing 0.07
REM Total runtime: 58669.7 s
REM Overall efficiency: 70.1 %
REM
REM
REM
REM compiler GCC version 4.9.2
REM options -cpp -iprefix /scratch/UCL/applications/gcc/4.9.2/bin/../lib/gcc/x86_64-unknown-linux-gnu/4.9.2/ -mtune=corei7 -march=x86-64 -g -O2
REM COMMAND_LINE
REM seed -302041819 819074373 1587299806 -231315756 -268842239 1729155314 1060942862 -1708625590 1283430988 1254817345 -684660205 -2053426046
REM
REM S 3|1.8|5|6|7|30:31:32(qc=5)
REM O 2|1.5|12|13|15|20:21(qc=5)
REM Li 1|1.3|8|9|10|10U:20(qc=5)
REM Fe 3|2.2|2.0|1.0|8|9|10|40:41:32(qc=5)
REM F 2|1.6|10|12|13|20:21(qc=5)
REM 
CELL 1.54180    4.67516    7.41707   14.69543   90.00000   90.00000  108.40393
LATT -1
SFAC Li O  F  S  Fe 
Li     1  0.4604140000000 -0.0125560000000 -0.1501410000000 1.0   0.02
Li     1 -0.0395860000000 -0.0125560000000  0.1501410000000 1.0   0.02
Li     1  0.4551810000000  0.3852730000000  0.1972140000000 1.0   0.02
Li     1 -0.0448190000000  0.3852730000000 -0.1972140000000 1.0   0.02
O      2  0.5144610000000  0.4610530000000 -0.4284220000000 1.0  -0.07
O      2  0.9036620000000  0.4499970000000 -0.3189850000000 1.0  -0.07
O      2  0.6947740000000  0.1721800000000 -0.4167010000000 1.0  -0.02
O      2  0.3761160000000  0.2489680000000 -0.2967410000000 1.0  -0.05
O      2  0.0144610000000  0.4610530000000  0.4284220000000 1.0  -0.07
O      2  0.4036620000000  0.4499970000000  0.3189850000000 1.0  -0.07
O      2  0.1947740000000  0.1721800000000  0.4167010000000 1.0  -0.02
O      2 -0.1238840000000  0.2489680000000  0.2967410000000 1.0  -0.05
O      2 -0.4022590000000 -0.2556950000000 -0.2591350000000 1.0  -0.09
O      2  0.0679860000000 -0.1533420000000 -0.1823510000000 1.0  -0.06
O      2 -0.2737350000000 -0.4751810000000 -0.1446180000000 1.0  -0.01
O      2 -0.4014170000000 -0.1982350000000 -0.0929910000000 1.0  -0.01
O      2 -0.9022590000000 -0.2556950000000  0.2591350000000 1.0  -0.09
O      2 -0.4320140000000 -0.1533420000000  0.1823510000000 1.0  -0.06
O      2 -0.7737350000000 -0.4751810000000  0.1446180000000 1.0  -0.01
O      2 -0.9014170000000 -0.1982350000000  0.0929910000000 1.0  -0.01
F      3 -0.3616290000000 -0.1643290000000  0.3815930000000 1.0  -0.13
F      3  0.1383710000000 -0.1643290000000 -0.3815930000000 1.0  -0.13
F      3 -0.1804010000000  0.1311650000000 -0.2041760000000 1.0  -0.06
F      3  0.3195990000000  0.1311650000000  0.2041760000000 1.0  -0.06
S      4  0.6194770000000  0.3250740000000 -0.3685760000000 1.0  -0.01
S      4  0.1194770000000  0.3250740000000  0.3685760000000 1.0  -0.01
S      4 -0.2554580000000 -0.2769480000000 -0.1649630000000 1.0  -0.01
S      4 -0.7554580000000 -0.2769480000000  0.1649630000000 1.0  -0.01
Fe     5 -0.0090210000000  0.0002480000000 -0.3011710000000 1.0  -3.75
Fe     5  0.4909790000000  0.0002480000000  0.3011710000000 1.0  -3.75
Fe     5 -0.1965650000000 -0.3765800000000  0.3633930000000 1.0  -3.71
Fe     5 -0.6965650000000 -0.3765800000000 -0.3633930000000 1.0  -3.71
END
