TITL 4LiFeSO4F-200804-061910-32c911 0.0096 495.190836 -1.51311204E+004 16.0000 16.1933 32 (P-1) n - 1
REM
REM Run started: Thu, 06 Aug 2020 03:16:46 +0100 in /lustre/scratch/uccabz1/launch_tmp/launcher_2020-08-05-15-25-59-582803
REM CASTEP 20.1 from code version af48c487+ pr-geom-scf-spinfix Tue Jun 2 15:39:59 2020 +0100
REM Functional Perdew Burke Ernzerhof Relativity Koelling-Harmon Dispersion off
REM Cut-off 340.0000 eV Grid scale 1.7500 Gmax 16.5316 1/A FBSC none
REM MP grid 3 3 2 Offset 0.000 0.000 0.000 No. kpts 9 Spacing 0.07
REM Total runtime: 58519.4 s
REM Overall efficiency: 98 %
REM
REM
REM
REM compiler GCC version 4.9.2
REM options -cpp -iprefix /lustre/shared/ucl/apps/gcc/4.9.2/bin/../lib/gcc/x86_64-unknown-linux-gnu/4.9.2/ -mtune=corei7 -march=x86-64 -g -Og
REM COMMAND_LINE
REM seed -2147302545 1048345692 1869272433 -275555196 753447543 589117696 1371157075 519234602 -288460522 139769489 -880297873 1504041050
REM
REM S 3|1.8|5|6|7|30:31:32(qc=5)
REM O 2|1.5|12|13|15|20:21(qc=5)
REM Li 1|1.3|8|9|10|10U:20(qc=5)
REM Fe 3|2.2|2.0|1.0|8|9|10|40:41:32(qc=5)
REM F 2|1.6|10|12|13|20:21(qc=5)
REM 
CELL 1.54180    9.39500    8.67107   10.01134   90.25495  122.26650  125.88203
LATT -1
SFAC Li O  F  S  Fe 
Li     1 -0.0516090000000  0.1476430000000  0.0978820000000 1.0  -0.01
Li     1  0.0516090000000 -0.1476430000000 -0.0978820000000 1.0  -0.01
Li     1 -0.2925670000000 -0.2138060000000  0.2137000000000 1.0  -0.01
Li     1  0.2925670000000  0.2138060000000 -0.2137000000000 1.0  -0.01
O      2 -0.3743390000000 -0.0702920000000 -0.4345920000000 1.0   0.06
O      2 -0.3959780000000 -0.1273730000000 -0.6897010000000 1.0   0.06
O      2 -0.0263660000000  0.0664560000000 -0.3847570000000 1.0   0.02
O      2 -0.1739180000000  0.2355950000000 -0.4846970000000 1.0   0.08
O      2  0.3743390000000  0.0702920000000  0.4345920000000 1.0   0.06
O      2  0.3959780000000  0.1273730000000  0.6897010000000 1.0   0.06
O      2  0.0263660000000 -0.0664560000000  0.3847570000000 1.0   0.02
O      2  0.1739180000000 -0.2355950000000  0.4846970000000 1.0   0.08
O      2 -0.2015520000000 -0.1941830000000 -0.1566750000000 1.0   0.00
O      2 -0.3853570000000 -0.4863510000000 -0.0882670000000 1.0   0.05
O      2 -0.6143260000000 -0.4225400000000 -0.3025580000000 1.0   0.07
O      2 -0.3052450000000 -0.1634560000000  0.0156590000000 1.0   0.01
O      2  0.2015520000000  0.1941830000000  0.1566750000000 1.0   0.00
O      2  0.3853570000000  0.4863510000000  0.0882670000000 1.0   0.05
O      2  0.6143260000000  0.4225400000000  0.3025580000000 1.0   0.07
O      2  0.3052450000000  0.1634560000000 -0.0156590000000 1.0   0.01
F      3  0.1143830000000 -0.2940450000000  0.0485240000000 1.0   0.11
F      3 -0.1143830000000  0.2940450000000 -0.0485240000000 1.0   0.11
F      3 -0.1750390000000 -0.4514040000000 -0.2925500000000 1.0   0.12
F      3  0.1750390000000  0.4514040000000  0.2925500000000 1.0   0.12
S      4 -0.2380840000000  0.0272910000000 -0.4941270000000 1.0   0.01
S      4  0.2380840000000 -0.0272910000000  0.4941270000000 1.0   0.01
S      4 -0.3709860000000 -0.3109360000000 -0.1309500000000 1.0   0.01
S      4  0.3709860000000  0.3109360000000  0.1309500000000 1.0   0.01
Fe     5  0.7426060000000  0.4096810000000 -0.1445900000000 1.0   3.71
Fe     5 -0.7426060000000 -0.4096810000000  0.1445900000000 1.0   3.71
Fe     5 -0.6622010000000 -0.3226100000000 -0.4864260000000 1.0   3.71
Fe     5  0.6622010000000  0.3226100000000  0.4864260000000 1.0   3.71
END
