TITL 4LiFeSO4F-200818-082530-740c89 -0.0029 457.440910 -1.51312389E+004 16.0000 16.2305 32 (C2) n - 1
REM
REM Run started: Tue, 18 Aug 2020 22:31:02 +0100 in /lustre/scratch/uccabz1/launch_tmp/launcher_2020-08-18-07-24-59-114901
REM CASTEP 20.1 from code version af48c487+ pr-geom-scf-spinfix Tue Jun 2 15:39:59 2020 +0100
REM Functional Perdew Burke Ernzerhof Relativity Koelling-Harmon Dispersion off
REM Cut-off 340.0000 eV Grid scale 1.7500 Gmax 16.5316 1/A FBSC none
REM MP grid 3 3 2 Offset 0.000 0.000 0.000 No. kpts 6 Spacing 0.07
REM Total runtime: 50956.4 s
REM Overall efficiency: 69.3636 %
REM
REM 4LiFeSO4F.cell (79c870615ff1d88195b1fe3fe805288c)
REM
REM compiler GCC version 4.9.2
REM options -cpp -iprefix /lustre/shared/ucl/apps/gcc/4.9.2/bin/../lib/gcc/x86_64-unknown-linux-gnu/4.9.2/ -mtune=corei7 -march=x86-64 -g -Og
REM COMMAND_LINE
REM seed -1589272305 574346398 -1284946693 612523202 -2061366403 773932449 -1482067174 -181457102 -2016509985 410869844 971800604 -937570357
REM
REM S 3|1.8|5|6|7|30:31:32(qc=5)
REM O 2|1.5|12|13|15|20:21(qc=5)
REM Li 1|1.3|8|9|10|10U:20(qc=5)
REM Fe 3|2.2|2.0|1.0|8|9|10|40:41:32(qc=5)
REM F 2|1.6|10|12|13|20:21(qc=5)
REM 
CELL 1.54180    6.90062    6.90062    9.82831   96.43852   96.43852   81.21072
LATT -1
SFAC Li O  F  S  Fe 
Li     1 -0.0814140000000 -0.2102720000000 -0.2123950000000 1.0  -0.02
Li     1  0.2102720000000  0.0814140000000  0.2123950000000 1.0  -0.02
Li     1 -0.1454400000000  0.4123310000000  0.2123590000000 1.0  -0.01
Li     1 -0.4123310000000  0.1454400000000 -0.2123590000000 1.0  -0.01
O      2 -0.3140380000000 -0.0491470000000  0.4007270000000 1.0   0.06
O      2 -0.4901480000000  0.0299850000000  0.1749930000000 1.0   0.06
O      2 -0.2925810000000  0.2673300000000  0.3168240000000 1.0   0.01
O      2 -0.6151140000000  0.1954630000000  0.3796450000000 1.0   0.05
O      2  0.0491470000000  0.3140380000000 -0.4007270000000 1.0   0.06
O      2 -0.0299850000000  0.4901480000000 -0.1749930000000 1.0   0.06
O      2 -0.2673300000000  0.2925810000000 -0.3168240000000 1.0   0.01
O      2 -0.1954630000000  0.6151140000000 -0.3796450000000 1.0   0.05
O      2  0.1430340000000 -0.1176760000000 -0.2498190000000 1.0   0.01
O      2  0.4518320000000 -0.2550690000000 -0.1234110000000 1.0   0.06
O      2  0.4606900000000 -0.0770100000000 -0.3286240000000 1.0   0.07
O      2  0.3631660000000 -0.4022510000000 -0.3546650000000 1.0   0.07
O      2  0.1176760000000 -0.1430340000000  0.2498190000000 1.0   0.01
O      2  0.2550690000000 -0.4518320000000  0.1234110000000 1.0   0.06
O      2  0.0770100000000 -0.4606900000000  0.3286240000000 1.0   0.07
O      2  0.4022510000000 -0.3631660000000  0.3546650000000 1.0   0.07
F      3  0.3885240000000  0.2507390000000 -0.1091280000000 1.0   0.13
F      3 -0.2507390000000 -0.3885240000000  0.1091280000000 1.0   0.13
F      3  0.0301470000000  0.2335130000000  0.1030700000000 1.0   0.08
F      3 -0.2335130000000 -0.0301470000000 -0.1030700000000 1.0   0.08
S      4 -0.4190780000000  0.1153990000000  0.3204480000000 1.0   0.01
S      4 -0.1153990000000  0.4190780000000 -0.3204480000000 1.0   0.01
S      4  0.3484930000000 -0.2109300000000 -0.2606240000000 1.0   0.02
S      4  0.2109300000000 -0.3484930000000  0.2606240000000 1.0   0.02
Fe     5  0.1564490000000  0.3503760000000 -0.0292600000000 1.0   3.78
Fe     5 -0.3503760000000 -0.1564490000000  0.0292600000000 1.0   3.78
Fe     5 -0.4233630000000 -0.2370280000000 -0.4960890000000 1.0   3.65
Fe     5  0.2370280000000  0.4233630000000  0.4960890000000 1.0   3.65
END
