TITL 4LiFeSO4F-200818-000123-a8eb3c 0.0054 439.305279 -1.51305367E+004 16.0000 16.1159 32 (C2) n - 1
REM
REM Run started: Tue, 18 Aug 2020 10:51:20 +0100 in /scratch/scratch/uccabz1/launch_tmp/launcher_2020-08-17-23-01-11-214945
REM CASTEP 19.11| from code version Version unavailable
REM Functional Perdew Burke Ernzerhof Relativity Koelling-Harmon Dispersion off
REM Cut-off 340.0000 eV Grid scale 1.7500 Gmax 16.5316 1/A FBSC none
REM MP grid 2 2 2 Offset 0.000 0.000 0.000 No. kpts 3 Spacing 0.07
REM Total runtime: 39689 s
REM Overall efficiency: 72.9231 %
REM
REM 4LiFeSO4F.cell (79c870615ff1d88195b1fe3fe805288c)
REM
REM compiler GCC version 4.9.2
REM options -cpp -iprefix /scratch/UCL/applications/gcc/4.9.2/bin/../lib/gcc/x86_64-unknown-linux-gnu/4.9.2/ -mtune=corei7 -march=x86-64 -g -O2
REM COMMAND_LINE
REM seed -425376467 -285854013 627233338 -1653975204 1637334583 2079458820 465903554 -1368443773 1871268441 270878545 748388177 -646111614
REM
REM S 3|1.8|5|6|7|30:31:32(qc=5)
REM O 2|1.5|12|13|15|20:21(qc=5)
REM Li 1|1.3|8|9|10|10U:20(qc=5)
REM Fe 3|2.2|2.0|1.0|8|9|10|40:41:32(qc=5)
REM F 2|1.6|10|12|13|20:21(qc=5)
REM 
CELL 1.54180    7.60091    7.60091    7.85235   86.71782   86.71782  103.46272
LATT -1
SFAC Li O  F  S  Fe 
Li     1  0.3920490000000 -0.3003420000000  0.3231290000000 1.0  -0.01
Li     1  0.3003420000000 -0.3920490000000 -0.3231290000000 1.0  -0.01
Li     1  0.0215090000000  0.0968060000000 -0.3251960000000 1.0  -0.01
Li     1 -0.0968060000000 -0.0215090000000  0.3251960000000 1.0  -0.01
O      2  0.2620060000000  0.1434380000000 -0.2370120000000 1.0   0.01
O      2  0.5489250000000  0.3806540000000 -0.2744460000000 1.0   0.07
O      2  0.4516150000000  0.2098520000000  0.0056110000000 1.0   0.06
O      2  0.2928390000000  0.4367650000000 -0.1087890000000 1.0   0.05
O      2 -0.1434380000000 -0.2620060000000  0.2370120000000 1.0   0.01
O      2 -0.3806540000000 -0.5489250000000  0.2744460000000 1.0   0.07
O      2 -0.2098520000000 -0.4516150000000 -0.0056110000000 1.0   0.06
O      2 -0.4367650000000 -0.2928390000000  0.1087890000000 1.0   0.05
O      2 -0.4178810000000  0.0957480000000 -0.4911140000000 1.0   0.06
O      2 -0.4996790000000 -0.2377090000000 -0.4638120000000 1.0   0.01
O      2 -0.4463720000000 -0.0731600000000 -0.2112000000000 1.0   0.07
O      2 -0.1903010000000 -0.0743120000000 -0.4167740000000 1.0   0.01
O      2 -0.0957480000000  0.4178810000000  0.4911140000000 1.0   0.06
O      2  0.2377090000000  0.4996790000000  0.4638120000000 1.0   0.01
O      2  0.0731600000000  0.4463720000000  0.2112000000000 1.0   0.07
O      2  0.0743120000000  0.1903010000000  0.4167740000000 1.0   0.01
F      3  0.3709890000000 -0.0659310000000  0.2391770000000 1.0   0.11
F      3  0.0659310000000 -0.3709890000000 -0.2391770000000 1.0   0.11
F      3 -0.0896460000000  0.2389570000000 -0.1747290000000 1.0   0.12
F      3 -0.2389570000000  0.0896460000000  0.1747290000000 1.0   0.12
S      4  0.3863840000000  0.2878300000000 -0.1556370000000 1.0   0.01
S      4 -0.2878300000000 -0.3863840000000  0.1556370000000 1.0   0.01
S      4 -0.3867540000000 -0.0710150000000 -0.3975600000000 1.0   0.01
S      4  0.0710150000000  0.3867540000000  0.3975600000000 1.0   0.01
Fe     5 -0.1843500000000 -0.5409140000000 -0.2706180000000 1.0   3.71
Fe     5  0.5409140000000  0.1843500000000  0.2706180000000 1.0   3.71
Fe     5 -0.4443570000000 -0.0281360000000  0.0301640000000 1.0   3.70
Fe     5  0.0281360000000  0.4443570000000 -0.0301640000000 1.0   3.70
END
