TITL 4LiFeSO4F-200818-034258-39e26a 0.0177 457.043639 -1.51300591E+004 -16.0000 16.2863 32 (P-1) n - 1
REM
REM Run started: Tue, 18 Aug 2020 21:28:17 +0100 in /lustre/scratch/uccabz1/launch_tmp/launcher_2020-08-18-02-42-49-830268
REM CASTEP 20.1 from code version af48c487+ pr-geom-scf-spinfix Tue Jun 2 15:39:59 2020 +0100
REM Functional Perdew Burke Ernzerhof Relativity Koelling-Harmon Dispersion off
REM Cut-off 340.0000 eV Grid scale 1.7500 Gmax 16.5316 1/A FBSC none
REM MP grid 3 3 2 Offset 0.000 0.000 0.000 No. kpts 9 Spacing 0.07
REM Total runtime: 64259.5 s
REM Overall efficiency: 87.0769 %
REM
REM 4LiFeSO4F.cell (79c870615ff1d88195b1fe3fe805288c)
REM
REM compiler GCC version 4.9.2
REM options -cpp -iprefix /lustre/shared/ucl/apps/gcc/4.9.2/bin/../lib/gcc/x86_64-unknown-linux-gnu/4.9.2/ -mtune=corei7 -march=x86-64 -g -Og
REM COMMAND_LINE
REM seed -1662961062 1438257442 1459803094 -557414993 1729794918 -1561191934 1238644974 1314634592 1390566105 -667326748 -1306236123 60297727
REM
REM S 3|1.8|5|6|7|30:31:32(qc=5)
REM O 2|1.5|12|13|15|20:21(qc=5)
REM Li 1|1.3|8|9|10|10U:20(qc=5)
REM Fe 3|2.2|2.0|1.0|8|9|10|40:41:32(qc=5)
REM F 2|1.6|10|12|13|20:21(qc=5)
REM 
CELL 1.54180    5.50078    7.76376   11.84946  110.73693   96.82995  100.00256
LATT -1
SFAC Li O  F  S  Fe 
Li     1 -0.0820050000000 -0.4558600000000  0.3180560000000 1.0   0.02
Li     1  0.0820050000000  0.4558600000000 -0.3180560000000 1.0   0.02
Li     1  0.0112620000000 -0.1577610000000 -0.3829230000000 1.0  -0.01
Li     1 -0.0112620000000  0.1577610000000  0.3829230000000 1.0  -0.01
O      2 -0.5099540000000 -0.2290930000000  0.0836730000000 1.0  -0.08
O      2 -0.5866310000000 -0.2208450000000  0.2844980000000 1.0  -0.06
O      2 -0.1616930000000 -0.0832730000000  0.2652620000000 1.0  -0.01
O      2 -0.3270530000000 -0.4280010000000  0.1755800000000 1.0  -0.07
O      2  0.5099540000000  0.2290930000000 -0.0836730000000 1.0  -0.08
O      2  0.5866310000000  0.2208450000000 -0.2844980000000 1.0  -0.06
O      2  0.1616930000000  0.0832730000000 -0.2652620000000 1.0  -0.01
O      2  0.3270530000000  0.4280010000000 -0.1755800000000 1.0  -0.07
O      2 -0.4130330000000 -0.2086470000000 -0.1953310000000 1.0  -0.08
O      2 -0.1428890000000 -0.3722440000000 -0.3311170000000 1.0  -0.01
O      2 -0.3757870000000 -0.1737520000000 -0.3897440000000 1.0  -0.06
O      2 -0.6118600000000 -0.4783620000000 -0.3882240000000 1.0  -0.01
O      2  0.4130330000000  0.2086470000000  0.1953310000000 1.0  -0.08
O      2  0.1428890000000  0.3722440000000  0.3311170000000 1.0  -0.01
O      2  0.3757870000000  0.1737520000000  0.3897440000000 1.0  -0.06
O      2  0.6118600000000  0.4783620000000  0.3882240000000 1.0  -0.01
F      3  0.0862480000000 -0.2296320000000  0.4622720000000 1.0  -0.08
F      3 -0.0862480000000  0.2296320000000 -0.4622720000000 1.0  -0.08
F      3 -0.0783620000000 -0.3702660000000 -0.0745050000000 1.0  -0.27
F      3  0.0783620000000  0.3702660000000  0.0745050000000 1.0  -0.27
S      4 -0.3910140000000 -0.2345260000000  0.2038930000000 1.0  -0.01
S      4  0.3910140000000  0.2345260000000 -0.2038930000000 1.0  -0.01
S      4 -0.3901180000000 -0.3166950000000 -0.3263830000000 1.0  -0.01
S      4  0.3901180000000  0.3166950000000  0.3263830000000 1.0  -0.01
Fe     5 -0.3912930000000 -0.3314580000000 -0.0715810000000 1.0  -3.82
Fe     5  0.3912930000000  0.3314580000000  0.0715810000000 1.0  -3.82
Fe     5 -0.4462990000000  0.1652310000000 -0.4606900000000 1.0  -3.43
Fe     5  0.4462990000000 -0.1652310000000  0.4606900000000 1.0  -3.43
END
