TITL 4LiFeSO4F-200804-083337-7d31a5 -0.0097 510.605612 -1.51313868E+004 16.0000 16.4530 32 (Iba2) n - 1
REM
REM Run started: Tue, 04 Aug 2020 15:48:43 +0100 in /lustre/scratch/uccabz1/launch_tmp/launcher_2020-08-04-07-33-29-404047
REM CASTEP 20.1 from code version af48c487+ pr-geom-scf-spinfix Tue Jun 2 15:39:59 2020 +0100
REM Functional Perdew Burke Ernzerhof Relativity Koelling-Harmon Dispersion off
REM Cut-off 340.0000 eV Grid scale 1.7500 Gmax 16.5316 1/A FBSC none
REM MP grid 3 2 2 Offset 0.000 0.000 0.000 No. kpts 5 Spacing 0.07
REM Total runtime: 28746.2 s
REM Overall efficiency: 76 %
REM
REM 4LiFeSO4F.cell (79c870615ff1d88195b1fe3fe805288c)
REM
REM compiler GCC version 4.9.2
REM options -cpp -iprefix /lustre/shared/ucl/apps/gcc/4.9.2/bin/../lib/gcc/x86_64-unknown-linux-gnu/4.9.2/ -mtune=corei7 -march=x86-64 -g -Og
REM COMMAND_LINE
REM seed 503298774 1906752375 -1603606603 -243491643 -1842834915 1568392777 -1999295422 -595154287 628336264 -957555270 1032417003 831440702
REM
REM S 3|1.8|5|6|7|30:31:32(qc=5)
REM O 2|1.5|12|13|15|20:21(qc=5)
REM Li 1|1.3|8|9|10|10U:20(qc=5)
REM Fe 3|2.2|2.0|1.0|8|9|10|40:41:32(qc=5)
REM F 2|1.6|10|12|13|20:21(qc=5)
REM 
CELL 1.54180    9.54120    8.73434    8.73434   71.66996   56.89404   56.89404
LATT -1
SFAC Li O  F  S  Fe 
Li     1 -0.1194440000000 -0.4161440000000 -0.3276130000000 1.0  -0.02
Li     1  0.1194440000000  0.3276130000000  0.4161440000000 1.0  -0.02
Li     1 -0.1367990000000  0.0838560000000  0.1723870000000 1.0  -0.02
Li     1  0.1367990000000 -0.1723870000000 -0.0838560000000 1.0  -0.02
O      2 -0.2704720000000 -0.4212540000000 -0.0703870000000 1.0   0.02
O      2 -0.3054380000000 -0.6997260000000  0.0730300000000 1.0   0.06
O      2 -0.5735750000000 -0.3957230000000  0.1882270000000 1.0   0.07
O      2 -0.2933850000000 -0.5354840000000  0.2358170000000 1.0   0.07
O      2  0.2704720000000  0.0703870000000  0.4212540000000 1.0   0.02
O      2  0.3054380000000 -0.0730300000000  0.6997260000000 1.0   0.06
O      2  0.5735750000000 -0.1882270000000  0.3957230000000 1.0   0.07
O      2  0.2933850000000 -0.2358170000000  0.5354840000000 1.0   0.07
O      2 -0.2378870000000  0.0787460000000 -0.5703870000000 1.0   0.02
O      2 -0.0678660000000 -0.1997260000000 -0.4269700000000 1.0   0.06
O      2 -0.2189280000000  0.1042770000000 -0.3117730000000 1.0   0.07
O      2 -0.4069480000000 -0.0354840000000 -0.2641830000000 1.0   0.07
O      2  0.2378870000000  0.5703870000000 -0.0787460000000 1.0   0.02
O      2  0.0678660000000  0.4269700000000  0.1997260000000 1.0   0.06
O      2  0.2189280000000  0.3117730000000 -0.1042770000000 1.0   0.07
O      2  0.4069480000000  0.2641830000000  0.0354840000000 1.0   0.07
F      3  0.1624040000000  0.4522090000000 -0.4880800000000 1.0   0.09
F      3 -0.1624040000000  0.4880800000000 -0.4522090000000 1.0   0.09
F      3 -0.1265340000000 -0.0477910000000  0.0119200000000 1.0   0.09
F      3  0.1265340000000 -0.0119200000000  0.0477910000000 1.0   0.09
S      4 -0.3602360000000 -0.5072880000000  0.1026950000000 1.0   0.02
S      4  0.3602360000000 -0.1026950000000  0.5072880000000 1.0   0.02
S      4 -0.2351710000000 -0.0072880000000 -0.3973050000000 1.0   0.02
S      4  0.2351710000000  0.3973050000000  0.0072880000000 1.0   0.02
Fe     5 -0.2187970000000 -0.4445830000000  0.3450800000000 1.0   3.69
Fe     5  0.2187970000000 -0.3450800000000  0.4445830000000 1.0   3.69
Fe     5  0.3182990000000  0.0554170000000 -0.1549200000000 1.0   3.69
Fe     5 -0.3182990000000  0.1549200000000 -0.0554170000000 1.0   3.69
END
