TITL 4LiFeSO4F-200804-061236-fb6718 0.0590 471.981986 -1.51307252E+004 -0.941406E-01 16.1554 32 (C2) n - 1
REM
REM Run started: Tue, 04 Aug 2020 14:17:59 +0100 in /lustre/scratch/uccabz1/launch_tmp/launcher_2020-08-04-05-12-23-085359
REM CASTEP 20.1 from code version af48c487+ pr-geom-scf-spinfix Tue Jun 2 15:39:59 2020 +0100
REM Functional Perdew Burke Ernzerhof Relativity Koelling-Harmon Dispersion off
REM Cut-off 340.0000 eV Grid scale 1.7500 Gmax 16.5316 1/A FBSC none
REM MP grid 3 3 3 Offset 0.000 0.000 0.000 No. kpts 10 Spacing 0.07
REM Total runtime: 29438.9 s
REM Overall efficiency: 81.7 %
REM
REM 4LiFeSO4F.cell (79c870615ff1d88195b1fe3fe805288c)
REM
REM compiler GCC version 4.9.2
REM options -cpp -iprefix /lustre/shared/ucl/apps/gcc/4.9.2/bin/../lib/gcc/x86_64-unknown-linux-gnu/4.9.2/ -mtune=corei7 -march=x86-64 -g -Og
REM COMMAND_LINE
REM seed 1882634909 50699761 715649091 -1123425632 -1229699465 -984059006 -1038066039 259976535 -333321882 -726221077 -368639070 951386474
REM
REM S 3|1.8|5|6|7|30:31:32(qc=5)
REM O 2|1.5|12|13|15|20:21(qc=5)
REM Li 1|1.3|8|9|10|10U:20(qc=5)
REM Fe 3|2.2|2.0|1.0|8|9|10|40:41:32(qc=5)
REM F 2|1.6|10|12|13|20:21(qc=5)
REM 
CELL 1.54180    8.35885    8.61508    8.61508  103.74407  112.57462  112.57462
LATT -1
SFAC Li O  F  S  Fe 
Li     1 -0.3085100000000  0.0214420000000  0.0674880000000 1.0  -0.01
Li     1  0.3085100000000 -0.0674880000000 -0.0214420000000 1.0  -0.01
Li     1  0.2629160000000  0.3746820000000 -0.0863670000000 1.0   0.00
Li     1 -0.2629160000000  0.0863670000000 -0.3746820000000 1.0   0.00
O      2 -0.5390410000000 -0.4312410000000 -0.1287950000000 1.0  -0.02
O      2 -0.4277080000000 -0.4976620000000  0.1353620000000 1.0  -0.02
O      2 -0.2516330000000 -0.1664550000000  0.1774830000000 1.0   0.05
O      2 -0.2010420000000 -0.4012950000000  0.0139950000000 1.0   0.06
O      2  0.5390410000000  0.1287950000000  0.4312410000000 1.0  -0.02
O      2  0.4277080000000 -0.1353620000000  0.4976620000000 1.0  -0.02
O      2  0.2516330000000 -0.1774830000000  0.1664550000000 1.0   0.05
O      2  0.2010420000000 -0.0139950000000  0.4012950000000 1.0   0.06
O      2  0.3162640000000  0.2835850000000  0.2738390000000 1.0  -0.04
O      2  0.2015240000000  0.4633030000000  0.1327780000000 1.0   0.06
O      2  0.1867250000000  0.4520240000000  0.4120710000000 1.0  -0.07
O      2 -0.0489150000000  0.1730110000000  0.1094420000000 1.0  -0.01
O      2 -0.3162640000000 -0.2738390000000 -0.2835850000000 1.0  -0.04
O      2 -0.2015240000000 -0.1327780000000 -0.4633030000000 1.0   0.06
O      2 -0.1867250000000 -0.4120710000000 -0.4520240000000 1.0  -0.07
O      2  0.0489150000000 -0.1094420000000 -0.1730110000000 1.0  -0.01
F      3 -0.1165930000000  0.3312190000000 -0.2056540000000 1.0   0.11
F      3  0.1165930000000  0.2056540000000 -0.3312190000000 1.0   0.11
F      3 -0.4278440000000  0.1555390000000  0.1357130000000 1.0  -0.09
F      3  0.4278440000000 -0.1357130000000 -0.1555390000000 1.0  -0.09
S      4 -0.3530800000000 -0.3762190000000  0.0498160000000 1.0   0.01
S      4  0.3530800000000 -0.0498160000000  0.3762190000000 1.0   0.01
S      4  0.1614240000000  0.3390760000000  0.2304260000000 1.0  -0.01
S      4 -0.1614240000000 -0.2304260000000 -0.3390760000000 1.0  -0.01
Fe     5 -0.4006920000000  0.3483980000000  0.3274890000000 1.0  -3.74
Fe     5  0.4006920000000 -0.3274890000000 -0.3483980000000 1.0  -3.74
Fe     5  0.0116610000000  0.5510600000000  0.0191360000000 1.0   3.66
Fe     5 -0.0116610000000 -0.0191360000000 -0.5510600000000 1.0   3.66
END
