TITL 4LiFeSO4F-200818-011358-43183f -0.0794 390.659890 -1.51288534E+004 15.9977 16.2564 32 (P42) n - 1
REM
REM Run started: Tue, 18 Aug 2020 03:05:38 +0100 in /lustre/scratch/uccabz1/launch_tmp/launcher_2020-08-18-00-13-39-541076
REM CASTEP 20.1 from code version af48c487+ pr-geom-scf-spinfix Tue Jun 2 15:39:59 2020 +0100
REM Functional Perdew Burke Ernzerhof Relativity Koelling-Harmon Dispersion off
REM Cut-off 340.0000 eV Grid scale 1.7500 Gmax 16.5316 1/A FBSC none
REM MP grid 3 2 2 Offset 0.000 0.000 0.000 No. kpts 2 Spacing 0.07
REM Total runtime: 6735.08 s
REM Overall efficiency: 72.2222 %
REM
REM 4LiFeSO4F.cell (79c870615ff1d88195b1fe3fe805288c)
REM
REM compiler GCC version 4.9.2
REM options -cpp -iprefix /lustre/shared/ucl/apps/gcc/4.9.2/bin/../lib/gcc/x86_64-unknown-linux-gnu/4.9.2/ -mtune=corei7 -march=x86-64 -g -Og
REM COMMAND_LINE
REM seed 2035861520 -784532919 1075354555 2141998960 -1772516131 -1568257044 1322607866 1049272722 1140104415 1070366861 -1282986749 -1453698564
REM
REM S 3|1.8|5|6|7|30:31:32(qc=5)
REM O 2|1.5|12|13|15|20:21(qc=5)
REM Li 1|1.3|8|9|10|10U:20(qc=5)
REM Fe 3|2.2|2.0|1.0|8|9|10|40:41:32(qc=5)
REM F 2|1.6|10|12|13|20:21(qc=5)
REM 
CELL 1.54180    5.15413    8.70607    8.70607   90.00000   90.00000   90.00000
LATT -1
SFAC Li O  F  S  Fe 
Li     1 -0.2493380000000 -0.4065120000000  0.1748300000000 1.0  -0.03
Li     1 -0.2493380000000  0.4065120000000 -0.1748300000000 1.0  -0.03
Li     1  0.2506620000000 -0.1748300000000 -0.4065120000000 1.0  -0.03
Li     1  0.2506620000000  0.1748300000000  0.4065120000000 1.0  -0.03
O      2 -0.3340100000000 -0.2090440000000 -0.3723070000000 1.0   0.07
O      2 -0.0109500000000 -0.1471620000000 -0.5712220000000 1.0   0.03
O      2 -0.4855110000000 -0.1110770000000 -0.6128890000000 1.0   0.06
O      2 -0.3042580000000 -0.3687820000000 -0.6093480000000 1.0   0.01
O      2 -0.3340100000000  0.2090440000000  0.3723070000000 1.0   0.07
O      2 -0.0109500000000  0.1471620000000  0.5712220000000 1.0   0.03
O      2 -0.4855110000000  0.1110770000000  0.6128890000000 1.0   0.06
O      2 -0.3042580000000  0.3687820000000  0.6093480000000 1.0   0.01
O      2  0.1659900000000  0.3723070000000 -0.2090440000000 1.0   0.07
O      2  0.4890500000000  0.5712220000000 -0.1471620000000 1.0   0.03
O      2  0.0144890000000  0.6128890000000 -0.1110770000000 1.0   0.06
O      2  0.1957420000000  0.6093480000000 -0.3687820000000 1.0   0.01
O      2  0.1659900000000 -0.3723070000000  0.2090440000000 1.0   0.07
O      2  0.4890500000000 -0.5712220000000  0.1471620000000 1.0   0.03
O      2  0.0144890000000 -0.6128890000000  0.1110770000000 1.0   0.06
O      2  0.1957420000000 -0.6093480000000  0.3687820000000 1.0   0.01
F      3 -0.3727270000000 -0.1873880000000  0.0545370000000 1.0   0.10
F      3 -0.3727270000000  0.1873880000000 -0.0545370000000 1.0   0.10
F      3  0.1272730000000 -0.0545370000000 -0.1873880000000 1.0   0.10
F      3  0.1272730000000  0.0545370000000  0.1873880000000 1.0   0.10
S      4 -0.2749730000000 -0.2136230000000 -0.5449450000000 1.0   0.01
S      4 -0.2749730000000  0.2136230000000  0.5449450000000 1.0   0.01
S      4  0.2250270000000  0.5449450000000 -0.2136230000000 1.0   0.01
S      4  0.2250270000000 -0.5449450000000  0.2136230000000 1.0   0.01
Fe     5  0.2734010000000  0.1542400000000 -0.2089130000000 1.0   3.75
Fe     5  0.2734010000000 -0.1542400000000  0.2089130000000 1.0   3.75
Fe     5 -0.2265990000000  0.2089130000000  0.1542400000000 1.0   3.75
Fe     5 -0.2265990000000 -0.2089130000000 -0.1542400000000 1.0   3.75
END
