TITL 4LiFeSO4F-200818-122739-6ae76d 0.0067 419.086036 -1.51300686E+004 16.0000 16.2070 32 (P21) n - 1
REM
REM Run started: Tue, 18 Aug 2020 17:47:41 +0100 in /lustre/scratch/uccabz1/launch_tmp/launcher_2020-08-18-11-27-36-666421
REM CASTEP 20.1 from code version af48c487+ pr-geom-scf-spinfix Tue Jun 2 15:39:59 2020 +0100
REM Functional Perdew Burke Ernzerhof Relativity Koelling-Harmon Dispersion off
REM Cut-off 340.0000 eV Grid scale 1.7500 Gmax 16.5316 1/A FBSC none
REM MP grid 3 2 3 Offset 0.000 0.000 0.000 No. kpts 6 Spacing 0.07
REM Total runtime: 19382.9 s
REM Overall efficiency: 72.5556 %
REM
REM 4LiFeSO4F.cell (79c870615ff1d88195b1fe3fe805288c)
REM
REM compiler GCC version 4.9.2
REM options -cpp -iprefix /lustre/shared/ucl/apps/gcc/4.9.2/bin/../lib/gcc/x86_64-unknown-linux-gnu/4.9.2/ -mtune=corei7 -march=x86-64 -g -Og
REM COMMAND_LINE
REM seed 491208230 -1137036075 -720296063 2116951849 2120527759 -1166693999 363287580 1500157529 920241997 -505364377 931832498 2134001764
REM
REM S 3|1.8|5|6|7|30:31:32(qc=5)
REM O 2|1.5|12|13|15|20:21(qc=5)
REM Li 1|1.3|8|9|10|10U:20(qc=5)
REM Fe 3|2.2|2.0|1.0|8|9|10|40:41:32(qc=5)
REM F 2|1.6|10|12|13|20:21(qc=5)
REM 
CELL 1.54180    7.07930    8.93975    7.04447  109.94414   90.00000   90.00000
LATT -1
SFAC Li O  F  S  Fe 
Li     1  0.3384390000000  0.3640900000000 -0.1174980000000 1.0  -0.02
Li     1 -0.1615610000000 -0.3640900000000  0.1174980000000 1.0  -0.02
Li     1 -0.4855050000000  0.3210730000000 -0.4962590000000 1.0  -0.01
Li     1  0.0144950000000 -0.3210730000000  0.4962590000000 1.0  -0.01
O      2  0.2538340000000 -0.2293400000000  0.3386340000000 1.0   0.06
O      2  0.2863140000000 -0.0446320000000  0.1459350000000 1.0   0.04
O      2  0.1458390000000  0.0412150000000  0.4914660000000 1.0   0.07
O      2 -0.0260350000000 -0.1432140000000  0.1996650000000 1.0   0.03
O      2 -0.2461660000000  0.2293400000000 -0.3386340000000 1.0   0.06
O      2 -0.2136860000000  0.0446320000000 -0.1459350000000 1.0   0.04
O      2 -0.3541610000000 -0.0412150000000 -0.4914660000000 1.0   0.07
O      2 -0.5260350000000  0.1432140000000 -0.1996650000000 1.0   0.03
O      2 -0.6127710000000 -0.4050000000000 -0.0577060000000 1.0   0.01
O      2 -0.3263470000000 -0.2434190000000 -0.0017290000000 1.0   0.03
O      2 -0.5518880000000 -0.2207510000000 -0.2541120000000 1.0   0.08
O      2 -0.3715720000000 -0.4669990000000 -0.3250200000000 1.0   0.01
O      2 -0.1127710000000  0.4050000000000  0.0577060000000 1.0   0.01
O      2  0.1736530000000  0.2434190000000  0.0017290000000 1.0   0.03
O      2 -0.0518880000000  0.2207510000000  0.2541120000000 1.0   0.08
O      2  0.1284280000000  0.4669990000000  0.3250200000000 1.0   0.01
F      3 -0.2404600000000 -0.3425920000000  0.3774750000000 1.0   0.08
F      3  0.2595400000000  0.3425920000000 -0.3774750000000 1.0   0.08
F      3 -0.4228630000000  0.1634450000000  0.2641010000000 1.0   0.13
F      3  0.0771370000000 -0.1634450000000 -0.2641010000000 1.0   0.13
S      4  0.1669530000000 -0.0903670000000  0.2906600000000 1.0   0.02
S      4 -0.3330470000000  0.0903670000000 -0.2906600000000 1.0   0.02
S      4 -0.4682100000000 -0.3391810000000 -0.1595120000000 1.0   0.01
S      4  0.0317900000000  0.3391810000000  0.1595120000000 1.0   0.01
Fe     5 -0.4896110000000 -0.2537960000000 -0.5530150000000 1.0   3.72
Fe     5  0.0103890000000  0.2537960000000  0.5530150000000 1.0   3.72
Fe     5  0.2565640000000 -0.0060640000000 -0.1315740000000 1.0   3.74
Fe     5 -0.2434360000000  0.0060640000000  0.1315740000000 1.0   3.74
END
