TITL 4LiFeSO4F-200804-055355-87069b 0.0556 462.053659 -1.51312132E+004 16.0006 16.2187 32 (P21) n - 1
REM
REM Run started: Tue, 04 Aug 2020 15:26:39 +0100 in /lustre/scratch/uccabz1/launch_tmp/launcher_2020-08-04-04-53-50-946937
REM CASTEP 20.1 from code version af48c487+ pr-geom-scf-spinfix Tue Jun 2 15:39:59 2020 +0100
REM Functional Perdew Burke Ernzerhof Relativity Koelling-Harmon Dispersion off
REM Cut-off 340.0000 eV Grid scale 1.7500 Gmax 16.5316 1/A FBSC none
REM MP grid 3 3 1 Offset 0.000 0.000 0.000 No. kpts 5 Spacing 0.07
REM Total runtime: 34498.5 s
REM Overall efficiency: 74.6667 %
REM
REM 4LiFeSO4F.cell (79c870615ff1d88195b1fe3fe805288c)
REM
REM compiler GCC version 4.9.2
REM options -cpp -iprefix /lustre/shared/ucl/apps/gcc/4.9.2/bin/../lib/gcc/x86_64-unknown-linux-gnu/4.9.2/ -mtune=corei7 -march=x86-64 -g -Og
REM COMMAND_LINE
REM seed -2105100582 1462706951 -1781653164 1242654028 424728238 1202417075 -1228491894 721563289 1543361810 1524746216 758327175 1599505912
REM
REM S 3|1.8|5|6|7|30:31:32(qc=5)
REM O 2|1.5|12|13|15|20:21(qc=5)
REM Li 1|1.3|8|9|10|10U:20(qc=5)
REM Fe 3|2.2|2.0|1.0|8|9|10|40:41:32(qc=5)
REM F 2|1.6|10|12|13|20:21(qc=5)
REM 
CELL 1.54180    5.40936    5.93311   14.43556   90.00000   90.00000   94.20330
LATT -1
SFAC Li O  F  S  Fe 
Li     1 -0.3187960000000 -0.0755940000000 -0.1078110000000 1.0  -0.02
Li     1  0.3187960000000  0.0755940000000  0.3921890000000 1.0  -0.02
Li     1 -0.1515990000000 -0.3950030000000 -0.0055860000000 1.0  -0.02
Li     1  0.1515990000000  0.3950030000000 -0.5055860000000 1.0  -0.02
O      2  0.4895250000000 -0.2108150000000  0.3761390000000 1.0   0.04
O      2  0.2206120000000 -0.3305660000000  0.2438660000000 1.0   0.07
O      2  0.3129780000000 -0.6051460000000  0.3652120000000 1.0   0.01
O      2  0.6363370000000 -0.4594260000000  0.2552190000000 1.0   0.07
O      2 -0.4895250000000  0.2108150000000 -0.1238610000000 1.0   0.04
O      2 -0.2206120000000  0.3305660000000 -0.2561340000000 1.0   0.07
O      2 -0.3129780000000  0.6051460000000 -0.1347880000000 1.0   0.01
O      2 -0.6363370000000  0.4594260000000 -0.2447810000000 1.0   0.07
O      2  0.2939360000000  0.1206930000000 -0.4725800000000 1.0   0.01
O      2  0.1621890000000 -0.2788890000000 -0.4469540000000 1.0   0.04
O      2  0.2808110000000 -0.0320120000000 -0.3141270000000 1.0   0.06
O      2  0.6008200000000 -0.1407230000000 -0.4204180000000 1.0   0.06
O      2 -0.2939360000000 -0.1206930000000  0.0274200000000 1.0   0.01
O      2 -0.1621890000000  0.2788890000000  0.0530460000000 1.0   0.04
O      2 -0.2808110000000  0.0320120000000  0.1858730000000 1.0   0.06
O      2 -0.6008200000000  0.1407230000000  0.0795820000000 1.0   0.06
F      3  0.0098210000000  0.0501110000000 -0.1242920000000 1.0   0.11
F      3 -0.0098210000000 -0.0501110000000  0.3757080000000 1.0   0.11
F      3  0.1750580000000 -0.4364630000000 -0.0295730000000 1.0   0.15
F      3 -0.1750580000000  0.4364630000000  0.4704270000000 1.0   0.15
S      4  0.4125030000000 -0.4054860000000  0.3107600000000 1.0   0.01
S      4 -0.4125030000000  0.4054860000000 -0.1892400000000 1.0   0.01
S      4  0.3348220000000 -0.0830090000000 -0.4141760000000 1.0   0.01
S      4 -0.3348220000000  0.0830090000000  0.0858240000000 1.0   0.01
Fe     5  0.1874570000000  0.2480060000000 -0.0268910000000 1.0   3.75
Fe     5 -0.1874570000000 -0.2480060000000  0.4731090000000 1.0   3.75
Fe     5 -0.1009530000000 -0.2002720000000  0.2499600000000 1.0   3.66
Fe     5  0.1009530000000  0.2002720000000 -0.2500400000000 1.0   3.66
END
