TITL 4LiFeSO4F-200804-084935-459811 -0.0164 498.848071 -1.51297394E+004 16.0000 16.5502 32 (Iba2) n - 1
REM
REM Run started: Tue, 04 Aug 2020 18:25:03 +0100 in /lustre/scratch/uccabz1/launch_tmp/launcher_2020-08-04-07-49-25-795001
REM CASTEP 20.1 from code version af48c487+ pr-geom-scf-spinfix Tue Jun 2 15:39:59 2020 +0100
REM Functional Perdew Burke Ernzerhof Relativity Koelling-Harmon Dispersion off
REM Cut-off 340.0000 eV Grid scale 1.7500 Gmax 16.5316 1/A FBSC none
REM MP grid 2 3 2 Offset 0.000 0.000 0.000 No. kpts 6 Spacing 0.07
REM Total runtime: 34657.2 s
REM Overall efficiency: 83.0833 %
REM
REM 4LiFeSO4F.cell (79c870615ff1d88195b1fe3fe805288c)
REM
REM compiler GCC version 4.9.2
REM options -cpp -iprefix /lustre/shared/ucl/apps/gcc/4.9.2/bin/../lib/gcc/x86_64-unknown-linux-gnu/4.9.2/ -mtune=corei7 -march=x86-64 -g -Og
REM COMMAND_LINE
REM seed -1731919900 1400454869 112382703 1434041155 666300777 1919792899 -1522224592 -1463799128 133191713 1087608708 -1156528259 1741369502
REM
REM S 3|1.8|5|6|7|30:31:32(qc=5)
REM O 2|1.5|12|13|15|20:21(qc=5)
REM Li 1|1.3|8|9|10|10U:20(qc=5)
REM Fe 3|2.2|2.0|1.0|8|9|10|40:41:32(qc=5)
REM F 2|1.6|10|12|13|20:21(qc=5)
REM 
CELL 1.54180    9.50996    7.32618    9.34309  113.08298  120.59258   90.00000
LATT -1
SFAC Li O  F  S  Fe 
Li     1 -0.3041700000000 -0.1638160000000 -0.3600920000000 1.0  -0.02
Li     1  0.3041700000000  0.1962760000000  0.3600920000000 1.0  -0.02
Li     1 -0.0559220000000  0.3361840000000 -0.3600920000000 1.0  -0.02
Li     1  0.0559220000000 -0.3037240000000  0.3600920000000 1.0  -0.02
O      2  0.1399540000000 -0.1880560000000 -0.3779080000000 1.0   0.04
O      2  0.3418450000000 -0.3866590000000 -0.2582420000000 1.0   0.06
O      2  0.0841380000000 -0.4090700000000 -0.2601050000000 1.0   0.02
O      2  0.3088780000000 -0.0831070000000 -0.0475820000000 1.0   0.07
O      2 -0.1399540000000  0.1898520000000  0.3779080000000 1.0   0.04
O      2 -0.3418450000000 -0.1284170000000  0.2582420000000 1.0   0.06
O      2 -0.0841380000000 -0.1489650000000  0.2601050000000 1.0   0.02
O      2 -0.3088780000000 -0.0355240000000  0.0475820000000 1.0   0.07
O      2 -0.5178620000000  0.3119440000000 -0.3779080000000 1.0   0.04
O      2 -0.6000870000000  0.1133410000000 -0.2582420000000 1.0   0.06
O      2 -0.3442420000000  0.0909300000000 -0.2601050000000 1.0   0.02
O      2 -0.3564610000000  0.4168930000000 -0.0475820000000 1.0   0.07
O      2  0.5178620000000 -0.3101480000000  0.3779080000000 1.0   0.04
O      2  0.6000870000000 -0.6284170000000  0.2582420000000 1.0   0.06
O      2  0.3442420000000 -0.6489650000000  0.2601050000000 1.0   0.02
O      2  0.3564610000000 -0.5355240000000  0.0475820000000 1.0   0.07
F      3  0.2715540000000 -0.0763330000000  0.2466010000000 1.0   0.12
F      3 -0.2715540000000 -0.3229340000000 -0.2466010000000 1.0   0.12
F      3 -0.0249540000000 -0.5763330000000  0.2466010000000 1.0   0.12
F      3  0.0249540000000  0.1770660000000 -0.2466010000000 1.0   0.12
S      4  0.2146640000000 -0.2738870000000 -0.2393330000000 1.0   0.01
S      4 -0.2146640000000 -0.0345550000000  0.2393320000000 1.0   0.01
S      4 -0.4539970000000  0.2261130000000 -0.2393330000000 1.0   0.01
S      4  0.4539970000000 -0.5345550000000  0.2393320000000 1.0   0.01
Fe     5 -0.2445170000000  0.3168620000000  0.1719870000000 1.0   3.70
Fe     5  0.2445170000000  0.1448740000000 -0.1719880000000 1.0   3.70
Fe     5  0.4165040000000 -0.1831380000000  0.1719870000000 1.0   3.70
Fe     5 -0.4165040000000 -0.3551260000000 -0.1719880000000 1.0   3.70
END
