TITL 4LiFeSO4F-200818-025906-0a4a3c 0.1536 479.684746 -1.51314719E+004 16.0000 16.2281 32 (P212121) n - 1
REM
REM Run started: Tue, 18 Aug 2020 05:04:09 +0100 in /lustre/scratch/uccabz1/launch_tmp/launcher_2020-08-18-01-59-01-842932
REM CASTEP 20.1 from code version af48c487+ pr-geom-scf-spinfix Tue Jun 2 15:39:59 2020 +0100
REM Functional Perdew Burke Ernzerhof Relativity Koelling-Harmon Dispersion off
REM Cut-off 340.0000 eV Grid scale 1.7500 Gmax 16.5316 1/A FBSC none
REM MP grid 3 2 2 Offset 0.000 0.000 0.000 No. kpts 2 Spacing 0.07
REM Total runtime: 8438.96 s
REM Overall efficiency: 75.25 %
REM
REM 4LiFeSO4F.cell (79c870615ff1d88195b1fe3fe805288c)
REM
REM compiler GCC version 4.9.2
REM options -cpp -iprefix /lustre/shared/ucl/apps/gcc/4.9.2/bin/../lib/gcc/x86_64-unknown-linux-gnu/4.9.2/ -mtune=corei7 -march=x86-64 -g -Og
REM COMMAND_LINE
REM seed 621847680 -1947430965 1310025562 -253776419 1865858116 342436114 312243978 171113083 490924191 1982480971 1403771735 -663104046
REM
REM S 3|1.8|5|6|7|30:31:32(qc=5)
REM O 2|1.5|12|13|15|20:21(qc=5)
REM Li 1|1.3|8|9|10|10U:20(qc=5)
REM Fe 3|2.2|2.0|1.0|8|9|10|40:41:32(qc=5)
REM F 2|1.6|10|12|13|20:21(qc=5)
REM 
CELL 1.54180    4.85497    7.55509   13.07764   90.00000   90.00000   90.00000
LATT -1
SFAC Li O  F  S  Fe 
Li     1 -0.0531440000000  0.3666850000000 -0.1325770000000 1.0  -0.02
Li     1 -0.4468560000000 -0.1333150000000  0.1325770000000 1.0  -0.02
Li     1  0.0531440000000  0.1333150000000  0.3674230000000 1.0  -0.02
Li     1  0.4468560000000 -0.3666850000000 -0.3674230000000 1.0  -0.02
O      2  0.3671800000000 -0.3065860000000  0.0309510000000 1.0   0.06
O      2  0.0453110000000 -0.5147210000000  0.1126810000000 1.0   0.05
O      2 -0.0626850000000 -0.3919520000000 -0.0575310000000 1.0   0.04
O      2 -0.0761230000000 -0.1979880000000  0.0941690000000 1.0   0.01
O      2  0.1328200000000  0.1934140000000 -0.0309510000000 1.0   0.06
O      2  0.4546890000000 -0.0147210000000 -0.1126810000000 1.0   0.05
O      2  0.5626850000000  0.1080480000000  0.0575310000000 1.0   0.04
O      2  0.5761230000000  0.3020120000000 -0.0941690000000 1.0   0.01
O      2 -0.3671800000000 -0.1934140000000 -0.4690490000000 1.0   0.06
O      2 -0.0453110000000  0.0147210000000 -0.3873190000000 1.0   0.05
O      2  0.0626850000000 -0.1080480000000 -0.5575310000000 1.0   0.04
O      2  0.0761230000000 -0.3020120000000 -0.4058310000000 1.0   0.01
O      2 -0.1328200000000  0.3065860000000  0.4690490000000 1.0   0.06
O      2 -0.4546890000000  0.5147210000000  0.3873190000000 1.0   0.05
O      2 -0.5626850000000  0.3919520000000  0.5575310000000 1.0   0.04
O      2 -0.5761230000000  0.1979880000000  0.4058310000000 1.0   0.01
F      3  0.0769110000000  0.3387600000000 -0.2602140000000 1.0   0.12
F      3  0.4230890000000 -0.1612400000000  0.2602140000000 1.0   0.12
F      3 -0.0769110000000  0.1612400000000  0.2397860000000 1.0   0.12
F      3 -0.4230890000000 -0.3387600000000 -0.2397860000000 1.0   0.12
S      4  0.0593310000000 -0.3524630000000  0.0473250000000 1.0   0.02
S      4  0.4406690000000  0.1475370000000 -0.0473250000000 1.0   0.02
S      4 -0.0593310000000 -0.1475370000000 -0.4526750000000 1.0   0.02
S      4 -0.4406690000000  0.3524630000000  0.4526750000000 1.0   0.02
Fe     5  0.0691430000000  0.2771000000000 -0.3976980000000 1.0   3.72
Fe     5  0.4308570000000 -0.2229000000000  0.3976980000000 1.0   3.72
Fe     5 -0.0691430000000  0.2229000000000  0.1023020000000 1.0   3.72
Fe     5 -0.4308570000000 -0.2771000000000 -0.1023020000000 1.0   3.72
END
