TITL 4LiFeSO4F-200804-082243-27e1dd -0.0447 459.674373 -1.51309006E+004 15.9998 16.2465 32 (Cc) n - 1
REM
REM Run started: Tue, 04 Aug 2020 21:03:19 +0100 in /lustre/scratch/uccabz1/launch_tmp/launcher_2020-08-04-07-22-13-667996
REM CASTEP 20.1 from code version af48c487+ pr-geom-scf-spinfix Tue Jun 2 15:39:59 2020 +0100
REM Functional Perdew Burke Ernzerhof Relativity Koelling-Harmon Dispersion off
REM Cut-off 340.0000 eV Grid scale 1.7500 Gmax 16.5316 1/A FBSC none
REM MP grid 4 4 1 Offset 0.000 0.000 0.000 No. kpts 6 Spacing 0.07
REM Total runtime: 45885 s
REM Overall efficiency: 72.7273 %
REM
REM 4LiFeSO4F.cell (79c870615ff1d88195b1fe3fe805288c)
REM
REM compiler GCC version 4.9.2
REM options -cpp -iprefix /lustre/shared/ucl/apps/gcc/4.9.2/bin/../lib/gcc/x86_64-unknown-linux-gnu/4.9.2/ -mtune=corei7 -march=x86-64 -g -Og
REM COMMAND_LINE
REM seed -614592225 -1511682639 38694906 468785328 157171356 -1688779898 1414366173 -205215721 897563692 1782476547 -201377393 641035651
REM
REM S 3|1.8|5|6|7|30:31:32(qc=5)
REM O 2|1.5|12|13|15|20:21(qc=5)
REM Li 1|1.3|8|9|10|10U:20(qc=5)
REM Fe 3|2.2|2.0|1.0|8|9|10|40:41:32(qc=5)
REM F 2|1.6|10|12|13|20:21(qc=5)
REM 
CELL 1.54180    5.47044    5.47044   17.89662   94.55616   94.55616  119.63295
LATT -1
SFAC Li O  F  S  Fe 
Li     1  0.0367850000000  0.1187610000000 -0.1914200000000 1.0  -0.03
Li     1 -0.3812390000000 -0.4632150000000  0.3085800000000 1.0  -0.03
Li     1 -0.2308960000000 -0.0989430000000  0.1616710000000 1.0  -0.01
Li     1 -0.5989430000000  0.2691040000000 -0.3383290000000 1.0  -0.01
O      2  0.0124910000000 -0.5299560000000 -0.2220610000000 1.0   0.07
O      2  0.2171380000000 -0.0620120000000 -0.2657290000000 1.0   0.02
O      2 -0.1920600000000 -0.4762230000000 -0.3447250000000 1.0   0.02
O      2  0.2732970000000 -0.4485690000000 -0.3311910000000 1.0   0.00
O      2 -0.0299560000000 -0.4875090000000  0.2779390000000 1.0   0.07
O      2  0.4379880000000 -0.2828620000000  0.2342710000000 1.0   0.02
O      2  0.0237770000000 -0.6920600000000  0.1552750000000 1.0   0.02
O      2  0.0514310000000 -0.2267030000000  0.1688090000000 1.0   0.00
O      2 -0.3013700000000  0.2806990000000 -0.5076940000000 1.0   0.06
O      2 -0.6965330000000 -0.0028570000000 -0.4375010000000 1.0   0.05
O      2 -0.2856120000000 -0.0779920000000 -0.4346490000000 1.0   0.06
O      2 -0.6177050000000 -0.2256980000000 -0.5508930000000 1.0   0.05
O      2  0.7806990000000  0.1986300000000 -0.0076940000000 1.0   0.06
O      2  0.4971430000000 -0.1965330000000  0.0624990000000 1.0   0.05
O      2  0.4220080000000  0.2143880000000  0.0653510000000 1.0   0.06
O      2  0.2743020000000 -0.1177050000000 -0.0508930000000 1.0   0.05
F      3 -0.1354050000000 -0.2525970000000  0.4087840000000 1.0   0.11
F      3  0.2474030000000  0.3645950000000 -0.0912160000000 1.0   0.11
F      3 -0.6624430000000  0.2150580000000  0.3301930000000 1.0   0.13
F      3 -0.2849420000000 -0.1624430000000 -0.1698070000000 1.0   0.13
S      4  0.0795030000000 -0.3781430000000 -0.2938970000000 1.0   0.00
S      4  0.1218570000000 -0.4204970000000  0.2061030000000 1.0   0.00
S      4 -0.4715030000000 -0.0049250000000 -0.4822740000000 1.0   0.02
S      4  0.4950750000000  0.0284970000000  0.0177260000000 1.0   0.02
Fe     5 -0.1198230000000  0.6900900000000  0.5232710000000 1.0   3.70
Fe     5  0.1900900000000  0.3801770000000  0.0232710000000 1.0   3.70
Fe     5  0.2131190000000 -0.1441980000000  0.3558770000000 1.0   3.73
Fe     5  0.3558020000000 -0.2868810000000 -0.1441230000000 1.0   3.73
END
