TITL 4LiFeSO4F-200818-150730-f49c49 0.0242 460.379275 -1.51304405E+004 16.0000 16.2032 32 (Pc) n - 1
REM
REM Run started: Tue, 18 Aug 2020 21:09:25 +0100 in /lustre/scratch/uccabz1/launch_tmp/launcher_2020-08-18-14-07-28-024873
REM CASTEP 20.1 from code version af48c487+ pr-geom-scf-spinfix Tue Jun 2 15:39:59 2020 +0100
REM Functional Perdew Burke Ernzerhof Relativity Koelling-Harmon Dispersion off
REM Cut-off 340.0000 eV Grid scale 1.7500 Gmax 16.5316 1/A FBSC none
REM MP grid 2 2 2 Offset 0.000 0.000 0.000 No. kpts 2 Spacing 0.07
REM Total runtime: 22738.9 s
REM Overall efficiency: 75.1667 %
REM
REM 4LiFeSO4F.cell (79c870615ff1d88195b1fe3fe805288c)
REM
REM compiler GCC version 4.9.2
REM options -cpp -iprefix /lustre/shared/ucl/apps/gcc/4.9.2/bin/../lib/gcc/x86_64-unknown-linux-gnu/4.9.2/ -mtune=corei7 -march=x86-64 -g -Og
REM COMMAND_LINE
REM seed 1065662288 -1887982530 515863556 432033017 -288339541 1442862960 -1741903162 753447543 451509816 -1834893519 1783161251 645183613
REM
REM S 3|1.8|5|6|7|30:31:32(qc=5)
REM O 2|1.5|12|13|15|20:21(qc=5)
REM Li 1|1.3|8|9|10|10U:20(qc=5)
REM Fe 3|2.2|2.0|1.0|8|9|10|40:41:32(qc=5)
REM F 2|1.6|10|12|13|20:21(qc=5)
REM 
CELL 1.54180    7.58030    8.61184    7.19916   90.00000   90.00000  101.59081
LATT -1
SFAC Li O  F  S  Fe 
Li     1 -0.4160870000000  0.2838540000000  0.1674470000000 1.0  -0.02
Li     1  0.0839130000000  0.2838540000000 -0.1674470000000 1.0  -0.02
Li     1 -0.2406050000000  0.3856440000000 -0.3869210000000 1.0  -0.02
Li     1  0.2593950000000  0.3856440000000  0.3869210000000 1.0  -0.02
O      2  0.2163140000000  0.1240390000000 -0.1704700000000 1.0   0.02
O      2  0.3663570000000  0.1089350000000 -0.4747770000000 1.0   0.07
O      2  0.2127350000000 -0.1302070000000 -0.3205620000000 1.0   0.08
O      2  0.4956430000000  0.0260870000000 -0.1875690000000 1.0   0.07
O      2 -0.2836860000000  0.1240390000000  0.1704700000000 1.0   0.02
O      2 -0.1336430000000  0.1089350000000  0.4747770000000 1.0   0.07
O      2 -0.2872650000000 -0.1302070000000  0.3205620000000 1.0   0.08
O      2 -0.0043570000000  0.0260870000000  0.1875690000000 1.0   0.07
O      2  0.3053450000000 -0.3473840000000 -0.0218590000000 1.0   0.06
O      2  0.1025770000000 -0.4931070000000  0.2205070000000 1.0   0.02
O      2  0.2226590000000 -0.2061790000000  0.2530010000000 1.0   0.08
O      2  0.4151930000000 -0.4011130000000  0.2924740000000 1.0   0.06
O      2 -0.1946550000000 -0.3473840000000  0.0218590000000 1.0   0.06
O      2 -0.3974230000000 -0.4931070000000 -0.2205070000000 1.0   0.02
O      2 -0.2773410000000 -0.2061790000000 -0.2530010000000 1.0   0.08
O      2 -0.0848070000000 -0.4011130000000 -0.2924740000000 1.0   0.06
F      3 -0.1604870000000  0.2424360000000 -0.2129100000000 1.0   0.07
F      3  0.3395130000000  0.2424360000000  0.2129100000000 1.0   0.07
F      3 -0.3077550000000  0.4334330000000  0.3610510000000 1.0   0.07
F      3  0.1922450000000  0.4334330000000 -0.3610510000000 1.0   0.07
S      4  0.3224090000000  0.0344410000000 -0.2850360000000 1.0   0.02
S      4 -0.1775910000000  0.0344410000000  0.2850360000000 1.0   0.02
S      4  0.2575340000000 -0.3622600000000  0.1807890000000 1.0   0.02
S      4 -0.2424660000000 -0.3622600000000 -0.1807890000000 1.0   0.02
Fe     5 -0.2594340000000  0.0198480000000 -0.2879620000000 1.0   3.68
Fe     5  0.2405660000000  0.0198480000000  0.2879620000000 1.0   3.68
Fe     5 -0.3095840000000 -0.3529940000000  0.2806000000000 1.0   3.71
Fe     5  0.1904160000000 -0.3529940000000 -0.2806000000000 1.0   3.71
END
