TITL 4LiFeSO4F-200818-162241-3c21b0 0.0393 403.007301 -1.51316957E+004 16.0000 16.2452 32 (P43) n - 1
REM
REM Run started: Tue, 18 Aug 2020 17:15:00 +0100 in /lustre/scratch/uccabz1/launch_tmp/launcher_2020-08-18-15-22-33-340554
REM CASTEP 20.1 from code version af48c487+ pr-geom-scf-spinfix Tue Jun 2 15:39:59 2020 +0100
REM Functional Perdew Burke Ernzerhof Relativity Koelling-Harmon Dispersion off
REM Cut-off 340.0000 eV Grid scale 1.7500 Gmax 16.5316 1/A FBSC none
REM MP grid 2 2 3 Offset 0.000 0.000 0.000 No. kpts 2 Spacing 0.07
REM Total runtime: 3184.48 s
REM Overall efficiency: 69.2857 %
REM
REM 4LiFeSO4F.cell (79c870615ff1d88195b1fe3fe805288c)
REM
REM compiler GCC version 4.9.2
REM options -cpp -iprefix /lustre/shared/ucl/apps/gcc/4.9.2/bin/../lib/gcc/x86_64-unknown-linux-gnu/4.9.2/ -mtune=corei7 -march=x86-64 -g -Og
REM COMMAND_LINE
REM seed 986587391 -341835737 166818080 1525114946 -1637895546 -1422570894 1891428208 -424190697 -1135127753 -193947486 1030015865 344882970
REM
REM S 3|1.8|5|6|7|30:31:32(qc=5)
REM O 2|1.5|12|13|15|20:21(qc=5)
REM Li 1|1.3|8|9|10|10U:20(qc=5)
REM Fe 3|2.2|2.0|1.0|8|9|10|40:41:32(qc=5)
REM F 2|1.6|10|12|13|20:21(qc=5)
REM 
CELL 1.54180    7.51197    7.51197    7.14177   90.00000   90.00000   90.00000
LATT -1
SFAC Li O  F  S  Fe 
Li     1  0.2656000000000 -0.0623740000000 -0.3372620000000 1.0  -0.02
Li     1 -0.2656000000000  0.0623740000000  0.1627380000000 1.0  -0.02
Li     1  0.0623740000000  0.2656000000000  0.4127380000000 1.0  -0.02
Li     1 -0.0623740000000 -0.2656000000000 -0.0872620000000 1.0  -0.02
O      2 -0.3199770000000 -0.3507660000000 -0.5528310000000 1.0   0.08
O      2 -0.1476780000000 -0.1814790000000 -0.3211970000000 1.0   0.02
O      2 -0.4769730000000 -0.1847440000000 -0.3095550000000 1.0   0.05
O      2 -0.3218260000000 -0.0237290000000 -0.5605750000000 1.0   0.06
O      2  0.3199770000000  0.3507660000000 -0.0528310000000 1.0   0.08
O      2  0.1476780000000  0.1814790000000  0.1788030000000 1.0   0.02
O      2  0.4769730000000  0.1847440000000  0.1904450000000 1.0   0.05
O      2  0.3218260000000  0.0237290000000 -0.0605750000000 1.0   0.06
O      2  0.3507660000000 -0.3199770000000  0.1971690000000 1.0   0.08
O      2  0.1814790000000 -0.1476780000000  0.4288030000000 1.0   0.02
O      2  0.1847440000000 -0.4769730000000  0.4404450000000 1.0   0.05
O      2  0.0237290000000 -0.3218260000000  0.1894250000000 1.0   0.06
O      2 -0.3507660000000  0.3199770000000 -0.3028310000000 1.0   0.08
O      2 -0.1814790000000  0.1476780000000 -0.0711970000000 1.0   0.02
O      2 -0.1847440000000  0.4769730000000 -0.0595550000000 1.0   0.05
O      2 -0.0237290000000  0.3218260000000 -0.3105750000000 1.0   0.06
F      3  0.2951760000000  0.1967310000000 -0.4341640000000 1.0   0.08
F      3 -0.2951760000000 -0.1967310000000  0.0658360000000 1.0   0.08
F      3 -0.1967310000000  0.2951760000000  0.3158360000000 1.0   0.08
F      3  0.1967310000000 -0.2951760000000 -0.1841640000000 1.0   0.08
S      4 -0.3117480000000 -0.1851100000000 -0.4330760000000 1.0   0.02
S      4  0.3117480000000  0.1851100000000  0.0669240000000 1.0   0.02
S      4  0.1851100000000 -0.3117480000000  0.3169240000000 1.0   0.02
S      4 -0.1851100000000  0.3117480000000 -0.1830760000000 1.0   0.02
Fe     5 -0.2184130000000 -0.4530760000000  0.2180720000000 1.0   3.72
Fe     5  0.2184130000000  0.4530760000000 -0.2819280000000 1.0   3.72
Fe     5  0.4530760000000 -0.2184130000000 -0.0319280000000 1.0   3.72
Fe     5 -0.4530760000000  0.2184130000000  0.4680720000000 1.0   3.72
END
