TITL 4LiFeSO4F-200804-075524-9fe075 0.0948 445.235388 -1.51309837E+004 -16.0000 16.3090 32 (P-1) n - 1
REM
REM Run started: Wed, 05 Aug 2020 07:24:22 +0100 in /lustre/scratch/uccabz1/launch_tmp/launcher_2020-08-04-06-55-21-090230
REM CASTEP 20.1 from code version af48c487+ pr-geom-scf-spinfix Tue Jun 2 15:39:59 2020 +0100
REM Functional Perdew Burke Ernzerhof Relativity Koelling-Harmon Dispersion off
REM Cut-off 340.0000 eV Grid scale 1.7500 Gmax 16.5316 1/A FBSC none
REM MP grid 3 3 2 Offset 0.000 0.000 0.000 No. kpts 9 Spacing 0.07
REM Total runtime: 91783.6 s
REM Overall efficiency: 83 %
REM
REM 4LiFeSO4F.cell (79c870615ff1d88195b1fe3fe805288c)
REM
REM compiler GCC version 4.9.2
REM options -cpp -iprefix /lustre/shared/ucl/apps/gcc/4.9.2/bin/../lib/gcc/x86_64-unknown-linux-gnu/4.9.2/ -mtune=corei7 -march=x86-64 -g -Og
REM COMMAND_LINE
REM seed -796420762 1111949730 1273360525 -1627236966 1405569812 -116409492 1717384225 309749950 -1428778053 -1041130144 910992902 1737005269
REM
REM S 3|1.8|5|6|7|30:31:32(qc=5)
REM O 2|1.5|12|13|15|20:21(qc=5)
REM Li 1|1.3|8|9|10|10U:20(qc=5)
REM Fe 3|2.2|2.0|1.0|8|9|10|40:41:32(qc=5)
REM F 2|1.6|10|12|13|20:21(qc=5)
REM 
CELL 1.54180    5.54635    6.00592   15.39486  111.31047   88.94835  110.12479
LATT -1
SFAC Li O  F  S  Fe 
Li     1  0.1459570000000 -0.4641130000000  0.3605930000000 1.0   0.01
Li     1 -0.1459570000000  0.4641130000000 -0.3605930000000 1.0   0.01
Li     1  0.6204540000000  0.2161330000000  0.4129950000000 1.0   0.00
Li     1 -0.6204540000000 -0.2161330000000 -0.4129950000000 1.0   0.00
O      2 -0.3247820000000 -0.0330650000000 -0.3121810000000 1.0  -0.01
O      2 -0.0206520000000 -0.1953890000000 -0.2618070000000 1.0  -0.01
O      2 -0.3511120000000 -0.0856710000000 -0.1592440000000 1.0  -0.09
O      2  0.0053700000000  0.2527540000000 -0.1728060000000 1.0  -0.09
O      2  0.3247820000000  0.0330650000000  0.3121810000000 1.0  -0.01
O      2  0.0206520000000  0.1953890000000  0.2618070000000 1.0  -0.01
O      2  0.3511120000000  0.0856710000000  0.1592440000000 1.0  -0.09
O      2 -0.0053700000000 -0.2527540000000  0.1728060000000 1.0  -0.09
O      2  0.8191940000000 -0.0035540000000  0.4221400000000 1.0  -0.01
O      2  0.8316650000000 -0.4300390000000  0.4033130000000 1.0  -0.01
O      2  0.5397990000000 -0.3945600000000  0.2950410000000 1.0  -0.10
O      2  0.4468030000000 -0.3261870000000  0.4533500000000 1.0  -0.01
O      2 -0.8191940000000  0.0035540000000 -0.4221400000000 1.0  -0.01
O      2 -0.8316650000000  0.4300390000000 -0.4033130000000 1.0  -0.01
O      2 -0.5397990000000  0.3945600000000 -0.2950410000000 1.0  -0.10
O      2 -0.4468030000000  0.3261870000000 -0.4533500000000 1.0  -0.01
F      3  0.2498870000000 -0.2460970000000 -0.0561410000000 1.0  -0.14
F      3 -0.2498870000000  0.2460970000000  0.0561410000000 1.0  -0.14
F      3  0.3997110000000 -0.4752540000000  0.0903770000000 1.0  -0.16
F      3 -0.3997110000000  0.4752540000000 -0.0903770000000 1.0  -0.16
S      4 -0.1745820000000 -0.0289200000000 -0.2333090000000 1.0  -0.01
S      4  0.1745820000000  0.0289200000000  0.2333090000000 1.0  -0.01
S      4  0.6710740000000 -0.2785960000000  0.3974520000000 1.0  -0.01
S      4 -0.6710740000000  0.2785960000000 -0.3974520000000 1.0  -0.01
Fe     5 -0.6160060000000 -0.4482180000000 -0.1692190000000 1.0  -3.82
Fe     5  0.6160060000000  0.4482180000000  0.1692190000000 1.0  -3.82
Fe     5 -0.1861030000000  0.3204050000000 -0.0540590000000 1.0  -3.56
Fe     5  0.1861030000000 -0.3204050000000  0.0540590000000 1.0  -3.56
END
