TITL 4LiFeSO4F-200804-062414-8592a4 -0.0279 462.708698 -1.51294827E+004 16.0000 16.1422 32 (C2/c) n - 1
REM
REM Run started: Tue, 04 Aug 2020 11:12:53 +0100 in /lustre/scratch/uccabz1/launch_tmp/launcher_2020-08-04-05-24-10-977064
REM CASTEP 20.1 from code version af48c487+ pr-geom-scf-spinfix Tue Jun 2 15:39:59 2020 +0100
REM Functional Perdew Burke Ernzerhof Relativity Koelling-Harmon Dispersion off
REM Cut-off 340.0000 eV Grid scale 1.7500 Gmax 16.5316 1/A FBSC none
REM MP grid 2 2 2 Offset 0.000 0.000 0.000 No. kpts 3 Spacing 0.07
REM Total runtime: 17967 s
REM Overall efficiency: 77.4545 %
REM
REM 4LiFeSO4F.cell (79c870615ff1d88195b1fe3fe805288c)
REM
REM compiler GCC version 4.9.2
REM options -cpp -iprefix /lustre/shared/ucl/apps/gcc/4.9.2/bin/../lib/gcc/x86_64-unknown-linux-gnu/4.9.2/ -mtune=corei7 -march=x86-64 -g -Og
REM COMMAND_LINE
REM seed -1563232092 448142425 1203898368 1093942994 -1153314637 -1125250405 89599061 1308709974 1688858144 529966430 1949696808 -1107682583
REM
REM S 3|1.8|5|6|7|30:31:32(qc=5)
REM O 2|1.5|12|13|15|20:21(qc=5)
REM Li 1|1.3|8|9|10|10U:20(qc=5)
REM Fe 3|2.2|2.0|1.0|8|9|10|40:41:32(qc=5)
REM F 2|1.6|10|12|13|20:21(qc=5)
REM 
CELL 1.54180    7.56755    8.34278    8.34278  110.95960  101.08184  101.08184
LATT -1
SFAC Li O  F  S  Fe 
Li     1 -0.0652790000000  0.4795390000000 -0.1896910000000 1.0  -0.02
Li     1 -0.4347210000000 -0.3103090000000  0.0204610000000 1.0  -0.02
Li     1  0.0652790000000 -0.4795390000000  0.1896910000000 1.0  -0.02
Li     1  0.4347210000000  0.3103090000000 -0.0204610000000 1.0  -0.02
O      2  0.6981730000000  0.3761000000000 -0.3885980000000 1.0   0.08
O      2  0.4654510000000  0.1384620000000 -0.3602990000000 1.0   0.02
O      2  0.3635600000000  0.3599190000000 -0.4651480000000 1.0   0.08
O      2  0.5413560000000  0.4508360000000 -0.1510830000000 1.0   0.01
O      2 -0.1981730000000 -0.1114020000000  0.1239000000000 1.0   0.08
O      2  0.0345490000000 -0.1397010000000  0.3615380000000 1.0   0.02
O      2  0.1364400000000 -0.0348520000000  0.1400810000000 1.0   0.08
O      2 -0.0413560000000 -0.3489170000000  0.0491640000000 1.0   0.01
O      2 -0.6981730000000 -0.3761000000000  0.3885980000000 1.0   0.08
O      2 -0.4654510000000 -0.1384620000000  0.3602990000000 1.0   0.02
O      2 -0.3635600000000 -0.3599190000000  0.4651480000000 1.0   0.08
O      2 -0.5413560000000 -0.4508360000000  0.1510830000000 1.0   0.01
O      2  0.1981730000000  0.1114020000000 -0.1239000000000 1.0   0.08
O      2 -0.0345490000000  0.1397010000000 -0.3615380000000 1.0   0.02
O      2 -0.1364400000000  0.0348520000000 -0.1400810000000 1.0   0.08
O      2  0.0413560000000  0.3489170000000 -0.0491640000000 1.0   0.01
F      3  0.5780240000000  0.2131710000000  0.1313150000000 1.0   0.10
F      3 -0.0780240000000  0.3686850000000  0.2868290000000 1.0   0.10
F      3 -0.5780240000000 -0.2131710000000 -0.1313150000000 1.0   0.10
F      3  0.0780240000000 -0.3686850000000 -0.2868290000000 1.0   0.10
S      4  0.5121850000000  0.3225440000000 -0.3415830000000 1.0   0.00
S      4 -0.0121850000000 -0.1584170000000  0.1774560000000 1.0   0.00
S      4 -0.5121850000000 -0.3225440000000  0.3415830000000 1.0   0.00
S      4  0.0121850000000  0.1584170000000 -0.1774560000000 1.0   0.00
Fe     5  0.2068960000000 -0.1078280000000 -0.0852310000000 1.0   3.72
Fe     5  0.2931040000000 -0.4147690000000 -0.3921720000000 1.0   3.72
Fe     5 -0.2068960000000  0.1078280000000  0.0852310000000 1.0   3.72
Fe     5 -0.2931040000000  0.4147690000000  0.3921720000000 1.0   3.72
END
