TITL 4LiFeSO4F-200804-065627-fc7ef5 0.0363 406.376752 -1.51289290E+004 16.0000 16.3500 32 (C2) n - 1
REM
REM Run started: Wed, 05 Aug 2020 02:14:09 +0100 in /lustre/scratch/uccabz1/launch_tmp/launcher_2020-08-04-17-41-50-641735
REM CASTEP 20.1 from code version af48c487+ pr-geom-scf-spinfix Tue Jun 2 15:39:59 2020 +0100
REM Functional Perdew Burke Ernzerhof Relativity Koelling-Harmon Dispersion off
REM Cut-off 340.0000 eV Grid scale 1.7500 Gmax 16.5316 1/A FBSC none
REM MP grid 3 3 2 Offset 0.000 0.000 0.000 No. kpts 9 Spacing 0.07
REM Total runtime: 33367.7 s
REM Overall efficiency: 97.5714 %
REM
REM
REM
REM compiler GCC version 4.9.2
REM options -cpp -iprefix /lustre/shared/ucl/apps/gcc/4.9.2/bin/../lib/gcc/x86_64-unknown-linux-gnu/4.9.2/ -mtune=corei7 -march=x86-64 -g -Og
REM COMMAND_LINE
REM seed -1902813197 1022772412 -506202118 123563149 156721850 -298815643 -1929090735 -1399940084 1959805581 175473836 -1172177128 1728267052
REM
REM S 3|1.8|5|6|7|30:31:32(qc=5)
REM O 2|1.5|12|13|15|20:21(qc=5)
REM Li 1|1.3|8|9|10|10U:20(qc=5)
REM Fe 3|2.2|2.0|1.0|8|9|10|40:41:32(qc=5)
REM F 2|1.6|10|12|13|20:21(qc=5)
REM 
CELL 1.54180    5.70937    7.42484   11.09877   71.21741   75.09557   67.38868
LATT -1
SFAC Li O  F  S  Fe 
Li     1 -0.3969260000000  0.2764250000000 -0.1756290000000 1.0  -0.03
Li     1 -0.2961310000000 -0.2764230000000  0.1756290000000 1.0  -0.03
Li     1  0.6184080000000  0.2767160000000  0.2922100000000 1.0  -0.02
Li     1  0.1873330000000 -0.2767140000000 -0.2922100000000 1.0  -0.02
O      2 -0.4224110000000  0.2593940000000  0.5573440000000 1.0   0.07
O      2 -0.0807420000000  0.1334070000000  0.3874890000000 1.0   0.06
O      2 -0.0635200000000 -0.0602030000000  0.6123140000000 1.0   0.00
O      2  0.0093080000000  0.2682550000000  0.5406960000000 1.0   0.07
O      2 -0.6056740000000 -0.2593920000000 -0.5573440000000 1.0   0.07
O      2 -0.5598470000000 -0.1334050000000 -0.3874890000000 1.0   0.06
O      2 -0.5114100000000  0.0602050000000 -0.6123140000000 1.0   0.00
O      2 -0.1817420000000 -0.2682530000000 -0.5406960000000 1.0   0.07
O      2 -0.2291610000000 -0.3508100000000 -0.1636540000000 1.0   0.06
O      2 -0.4334740000000  0.0240580000000 -0.1910180000000 1.0   0.04
O      2 -0.1757680000000 -0.1904540000000 -0.0173750000000 1.0   0.05
O      2 -0.6020320000000 -0.2038470000000 -0.0124780000000 1.0   0.07
O      2  0.2563740000000  0.3508120000000  0.1636540000000 1.0   0.06
O      2  0.3995650000000 -0.0240560000000  0.1910180000000 1.0   0.04
O      2  0.6164020000000  0.1904560000000  0.0173750000000 1.0   0.05
O      2  0.1816430000000  0.2038490000000  0.0124780000000 1.0   0.07
F      3 -0.2923650000000  0.4648400000000  0.1487130000000 1.0   0.04
F      3  0.3211860000000 -0.4648380000000 -0.1487130000000 1.0   0.04
F      3  0.0202470000000 -0.2465460000000  0.2055420000000 1.0   0.09
F      3 -0.0207580000000  0.2465480000000 -0.2055420000000 1.0   0.09
S      4 -0.1355010000000  0.1455630000000  0.5276290000000 1.0   0.01
S      4 -0.4623100000000 -0.1455610000000 -0.5276290000000 1.0   0.01
S      4 -0.3611430000000 -0.1783700000000 -0.0985540000000 1.0   0.02
S      4  0.3619320000000  0.1783720000000  0.0985540000000 1.0   0.02
Fe     5  0.2854280000000  0.1525680000000 -0.3409700000000 1.0   3.76
Fe     5  0.0970250000000 -0.1525660000000  0.3409700000000 1.0   3.76
Fe     5 -0.1544500000000  0.3765870000000 -0.0360260000000 1.0   3.71
Fe     5  0.1861110000000 -0.3765850000000  0.0360260000000 1.0   3.71
END
