TITL 4LiFeSO4F-200817-230516-375e9c -0.0468 417.711451 -1.51310675E+004 16.0000 16.2233 32 (Pc) n - 1
REM
REM Run started: Tue, 18 Aug 2020 04:31:24 +0100 in /lustre/scratch/uccabz1/launch_tmp/launcher_2020-08-17-22-05-12-737447
REM CASTEP 20.1 from code version af48c487+ pr-geom-scf-spinfix Tue Jun 2 15:39:59 2020 +0100
REM Functional Perdew Burke Ernzerhof Relativity Koelling-Harmon Dispersion off
REM Cut-off 340.0000 eV Grid scale 1.7500 Gmax 16.5316 1/A FBSC none
REM MP grid 3 2 2 Offset 0.000 0.000 0.000 No. kpts 3 Spacing 0.07
REM Total runtime: 22277.8 s
REM Overall efficiency: 73.8333 %
REM
REM 4LiFeSO4F.cell (79c870615ff1d88195b1fe3fe805288c)
REM
REM compiler GCC version 4.9.2
REM options -cpp -iprefix /lustre/shared/ucl/apps/gcc/4.9.2/bin/../lib/gcc/x86_64-unknown-linux-gnu/4.9.2/ -mtune=corei7 -march=x86-64 -g -Og
REM COMMAND_LINE
REM seed -334217828 -1808484196 -878510917 612551598 1868415594 1985968289 -1004304161 -565563319 -1809474951 110394836 -1416579936 -42095080
REM
REM S 3|1.8|5|6|7|30:31:32(qc=5)
REM O 2|1.5|12|13|15|20:21(qc=5)
REM Li 1|1.3|8|9|10|10U:20(qc=5)
REM Fe 3|2.2|2.0|1.0|8|9|10|40:41:32(qc=5)
REM F 2|1.6|10|12|13|20:21(qc=5)
REM 
CELL 1.54180    5.73670    8.61210    8.57888   90.00000   99.75528   90.00000
LATT -1
SFAC Li O  F  S  Fe 
Li     1 -0.0405990000000  0.1200510000000  0.3091560000000 1.0  -0.03
Li     1 -0.0405990000000 -0.1200510000000 -0.1908440000000 1.0  -0.03
Li     1 -0.5465750000000  0.4692170000000 -0.1354700000000 1.0  -0.03
Li     1 -0.5465750000000 -0.4692170000000  0.3645300000000 1.0  -0.03
O      2  0.1328260000000 -0.3769390000000  0.2691560000000 1.0   0.05
O      2 -0.0759470000000 -0.2391530000000  0.0324450000000 1.0   0.04
O      2 -0.1068790000000 -0.5239390000000  0.0518470000000 1.0   0.06
O      2  0.2730510000000 -0.4046400000000  0.0179590000000 1.0   0.02
O      2  0.1328260000000  0.3769390000000 -0.2308440000000 1.0   0.05
O      2 -0.0759470000000  0.2391530000000 -0.4675550000000 1.0   0.04
O      2 -0.1068790000000  0.5239390000000 -0.4481530000000 1.0   0.06
O      2  0.2730510000000  0.4046400000000 -0.4820410000000 1.0   0.02
O      2 -0.8087080000000  0.1809160000000  0.1609000000000 1.0   0.04
O      2 -0.3896750000000  0.0866050000000  0.1717240000000 1.0   0.04
O      2 -0.5652580000000  0.1171590000000  0.4105240000000 1.0   0.07
O      2 -0.4612060000000  0.3471510000000  0.2575860000000 1.0   0.01
O      2 -0.8087080000000 -0.1809160000000 -0.3391000000000 1.0   0.04
O      2 -0.3896750000000 -0.0866050000000 -0.3282760000000 1.0   0.04
O      2 -0.5652580000000 -0.1171590000000 -0.0894760000000 1.0   0.07
O      2 -0.4612060000000 -0.3471510000000 -0.2424140000000 1.0   0.01
F      3 -0.0449250000000  0.0788410000000 -0.1387560000000 1.0   0.11
F      3 -0.0449250000000 -0.0788410000000 -0.6387560000000 1.0   0.11
F      3 -0.3710850000000  0.2966790000000 -0.1968230000000 1.0   0.09
F      3 -0.3710850000000 -0.2966790000000  0.3031770000000 1.0   0.09
S      4  0.0588200000000 -0.3859980000000  0.0909410000000 1.0   0.01
S      4  0.0588200000000  0.3859980000000 -0.4090590000000 1.0   0.01
S      4 -0.5555510000000  0.1875610000000  0.2496450000000 1.0   0.01
S      4 -0.5555510000000 -0.1875610000000 -0.2503550000000 1.0   0.01
Fe     5 -0.0230230000000 -0.2809760000000  0.4502800000000 1.0   3.76
Fe     5 -0.0230230000000  0.2809760000000 -0.0497200000000 1.0   3.76
Fe     5  0.6185700000000 -0.1530790000000  0.1240330000000 1.0   3.73
Fe     5  0.6185700000000  0.1530790000000 -0.3759670000000 1.0   3.73
END
