TITL 4LiFeSO4F-200818-030649-937b61 0.0994 481.701784 -1.51317315E+004 16.0000 16.2953 32 (P-1) n - 1
REM
REM Run started: Wed, 19 Aug 2020 06:49:49 +0100 in /scratch/scratch/uccabz1/launch_tmp/launcher_2020-08-18-19-43-37-164005
REM CASTEP 19.11| from code version Version unavailable
REM Functional Perdew Burke Ernzerhof Relativity Koelling-Harmon Dispersion off
REM Cut-off 340.0000 eV Grid scale 1.7500 Gmax 16.5316 1/A FBSC none
REM MP grid 3 3 2 Offset 0.000 0.000 0.000 No. kpts 9 Spacing 0.07
REM Total runtime: 44010.1 s
REM Overall efficiency: 98 %
REM
REM
REM
REM compiler GCC version 4.9.2
REM options -cpp -iprefix /scratch/UCL/applications/gcc/4.9.2/bin/../lib/gcc/x86_64-unknown-linux-gnu/4.9.2/ -mtune=corei7 -march=x86-64 -g -O2
REM COMMAND_LINE
REM seed -821406835 1452017542 -1320178698 1310025562 1555462418 524452345 -1857306308 632307798 -331815413 1115397095 -1544709470 121799592
REM
REM S 3|1.8|5|6|7|30:31:32(qc=5)
REM O 2|1.5|12|13|15|20:21(qc=5)
REM Li 1|1.3|8|9|10|10U:20(qc=5)
REM Fe 3|2.2|2.0|1.0|8|9|10|40:41:32(qc=5)
REM F 2|1.6|10|12|13|20:21(qc=5)
REM 
CELL 1.54180    5.71861    8.29887   13.84800   50.81733   84.35147   72.38846
LATT -1
SFAC Li O  F  S  Fe 
Li     1  0.1392890000000 -0.4299500000000  0.0403820000000 1.0  -0.01
Li     1 -0.1392890000000  0.4299500000000 -0.0403820000000 1.0  -0.01
Li     1 -0.0185310000000  0.3868120000000  0.3840680000000 1.0  -0.01
Li     1  0.0185310000000 -0.3868120000000 -0.3840680000000 1.0  -0.01
O      2 -0.1792580000000  0.4980000000000  0.0771300000000 1.0   0.01
O      2 -0.2341960000000  0.3349980000000  0.2986360000000 1.0   0.06
O      2 -0.5605460000000  0.4094860000000  0.1661000000000 1.0   0.04
O      2 -0.4623520000000  0.7210900000000  0.1239380000000 1.0   0.06
O      2  0.1792580000000 -0.4980000000000 -0.0771300000000 1.0   0.01
O      2  0.2341960000000 -0.3349980000000 -0.2986360000000 1.0   0.06
O      2  0.5605460000000 -0.4094860000000 -0.1661000000000 1.0   0.04
O      2  0.4623520000000 -0.7210900000000 -0.1239380000000 1.0   0.06
O      2 -0.1751280000000  0.0354350000000 -0.2385890000000 1.0   0.07
O      2  0.2318350000000  0.0723750000000 -0.3156870000000 1.0   0.09
O      2 -0.0548150000000  0.3338900000000 -0.2949450000000 1.0   0.07
O      2 -0.1491990000000  0.3260670000000 -0.4652380000000 1.0   0.01
O      2  0.1751280000000 -0.0354350000000  0.2385890000000 1.0   0.07
O      2 -0.2318350000000 -0.0723750000000  0.3156870000000 1.0   0.09
O      2  0.0548150000000 -0.3338900000000  0.2949450000000 1.0   0.07
O      2  0.1491990000000 -0.3260670000000  0.4652380000000 1.0   0.01
F      3 -0.0538330000000  0.1634830000000 -0.0059670000000 1.0   0.10
F      3  0.0538330000000 -0.1634830000000  0.0059670000000 1.0   0.10
F      3 -0.2905820000000 -0.1636560000000 -0.4355780000000 1.0   0.10
F      3  0.2905820000000  0.1636560000000  0.4355780000000 1.0   0.10
S      4 -0.3581820000000  0.4943010000000  0.1635180000000 1.0   0.01
S      4  0.3581820000000 -0.4943010000000 -0.1635180000000 1.0   0.01
S      4 -0.0408830000000  0.1946510000000 -0.3343340000000 1.0   0.01
S      4  0.0408830000000 -0.1946510000000  0.3343340000000 1.0   0.01
Fe     5 -0.1960840000000  0.1251950000000 -0.1239010000000 1.0   3.71
Fe     5  0.1960840000000 -0.1251950000000  0.1239010000000 1.0   3.71
Fe     5  0.4158290000000 -0.0944710000000 -0.3665640000000 1.0   3.69
Fe     5 -0.4158290000000  0.0944710000000  0.3665640000000 1.0   3.69
END
