TITL 4LiFeSO4F-200818-114311-455dc2 -0.0079 515.999979 -1.51308722E+004 -16.0000 16.2777 32 (Pc) n - 1
REM
REM Run started: Wed, 19 Aug 2020 00:03:54 +0100 in /lustre/scratch/uccabz1/launch_tmp/launcher_2020-08-18-10-43-03-116930
REM CASTEP 20.1 from code version af48c487+ pr-geom-scf-spinfix Tue Jun 2 15:39:59 2020 +0100
REM Functional Perdew Burke Ernzerhof Relativity Koelling-Harmon Dispersion off
REM Cut-off 340.0000 eV Grid scale 1.7500 Gmax 16.5316 1/A FBSC none
REM MP grid 4 2 2 Offset 0.000 0.000 0.000 No. kpts 4 Spacing 0.07
REM Total runtime: 49972.5 s
REM Overall efficiency: 72.25 %
REM
REM 4LiFeSO4F.cell (79c870615ff1d88195b1fe3fe805288c)
REM
REM compiler GCC version 4.9.2
REM options -cpp -iprefix /lustre/shared/ucl/apps/gcc/4.9.2/bin/../lib/gcc/x86_64-unknown-linux-gnu/4.9.2/ -mtune=corei7 -march=x86-64 -g -Og
REM COMMAND_LINE
REM seed 107213099 -997390190 -1021335283 1027943290 1980026413 1131939454 -547890837 1353632606 1646851200 -1060356083 624974286 1203429968
REM
REM S 3|1.8|5|6|7|30:31:32(qc=5)
REM O 2|1.5|12|13|15|20:21(qc=5)
REM Li 1|1.3|8|9|10|10U:20(qc=5)
REM Fe 3|2.2|2.0|1.0|8|9|10|40:41:32(qc=5)
REM F 2|1.6|10|12|13|20:21(qc=5)
REM 
CELL 1.54180    4.82029    7.96289   14.16828   90.00000  108.40819   90.00000
LATT -1
SFAC Li O  F  S  Fe 
Li     1 -0.5601070000000 -0.4497530000000 -0.4533970000000 1.0   0.01
Li     1 -0.0601070000000  0.4497530000000  0.0466030000000 1.0   0.01
Li     1 -0.2350690000000  0.0991190000000 -0.4630490000000 1.0   0.01
Li     1  0.2649310000000 -0.0991190000000  0.0369510000000 1.0   0.01
O      2  0.1176290000000  0.0719180000000  0.5052570000000 1.0  -0.02
O      2  0.0822450000000  0.3079750000000  0.3920530000000 1.0  -0.05
O      2 -0.0646900000000  0.0250010000000  0.3228720000000 1.0  -0.06
O      2  0.4505370000000  0.0846920000000  0.4053370000000 1.0  -0.05
O      2 -0.3823710000000 -0.0719180000000  0.0052570000000 1.0  -0.02
O      2 -0.4177550000000 -0.3079750000000 -0.1079470000000 1.0  -0.05
O      2 -0.5646900000000 -0.0250010000000 -0.1771280000000 1.0  -0.06
O      2 -0.0494630000000 -0.0846920000000 -0.0946630000000 1.0  -0.05
O      2  0.3531990000000 -0.4636020000000 -0.3228580000000 1.0  -0.05
O      2 -0.0374970000000 -0.2605340000000 -0.3204790000000 1.0  -0.04
O      2  0.0071250000000 -0.5359200000000 -0.2354730000000 1.0  -0.05
O      2 -0.1587400000000 -0.5186690000000 -0.4197020000000 1.0  -0.02
O      2 -0.1468010000000  0.4636020000000  0.1771420000000 1.0  -0.05
O      2 -0.5374970000000  0.2605340000000  0.1795210000000 1.0  -0.04
O      2 -0.4928750000000  0.5359200000000  0.2645270000000 1.0  -0.05
O      2 -0.6587400000000  0.5186690000000  0.0802980000000 1.0  -0.02
F      3 -0.7163190000000 -0.3571100000000  0.4274870000000 1.0  -0.12
F      3 -0.2163190000000  0.3571100000000 -0.0725130000000 1.0  -0.12
F      3 -0.2329450000000  0.0862530000000 -0.3368370000000 1.0  -0.12
F      3  0.2670550000000 -0.0862530000000  0.1631630000000 1.0  -0.12
S      4  0.1406030000000  0.1226750000000  0.4076380000000 1.0  -0.01
S      4 -0.3593970000000 -0.1226750000000 -0.0923620000000 1.0  -0.01
S      4  0.0318960000000 -0.4435950000000 -0.3255680000000 1.0  -0.01
S      4 -0.4681040000000  0.4435950000000  0.1744320000000 1.0  -0.01
Fe     5 -0.4974540000000  0.0446090000000  0.2668570000000 1.0  -3.71
Fe     5  0.0025460000000 -0.0446090000000 -0.2331430000000 1.0  -3.71
Fe     5 -0.3457630000000  0.4931650000000 -0.1867760000000 1.0  -3.70
Fe     5  0.1542370000000 -0.4931650000000  0.3132240000000 1.0  -3.70
END
