TITL 4LiFeSO4F-200817-234511-396e0b -0.0361 568.359277 -1.51297540E+004 16.0000 16.3625 32 (Cm) n - 1
REM
REM Run started: Wed, 19 Aug 2020 02:10:54 +0100 in /lustre/scratch/uccabz1/launch_tmp/launcher_2020-08-17-22-45-08-363704
REM CASTEP 20.1 from code version af48c487+ pr-geom-scf-spinfix Tue Jun 2 15:39:59 2020 +0100
REM Functional Perdew Burke Ernzerhof Relativity Koelling-Harmon Dispersion off
REM Cut-off 340.0000 eV Grid scale 1.7500 Gmax 16.5316 1/A FBSC none
REM MP grid 3 3 2 Offset 0.000 0.000 0.000 No. kpts 8 Spacing 0.07
REM Total runtime: 103318 s
REM Overall efficiency: 85.3333 %
REM
REM 4LiFeSO4F.cell (79c870615ff1d88195b1fe3fe805288c)
REM
REM compiler GCC version 4.9.2
REM options -cpp -iprefix /lustre/shared/ucl/apps/gcc/4.9.2/bin/../lib/gcc/x86_64-unknown-linux-gnu/4.9.2/ -mtune=corei7 -march=x86-64 -g -Og
REM COMMAND_LINE
REM seed -311496247 -114282421 1798727983 -289894244 267741566 -1288495183 994366774 1277355421 -466812904 -21078873 875508672 496962088
REM
REM S 3|1.8|5|6|7|30:31:32(qc=5)
REM O 2|1.5|12|13|15|20:21(qc=5)
REM Li 1|1.3|8|9|10|10U:20(qc=5)
REM Fe 3|2.2|2.0|1.0|8|9|10|40:41:32(qc=5)
REM F 2|1.6|10|12|13|20:21(qc=5)
REM 
CELL 1.54180    5.75836    8.45406   13.94210  101.60875   93.25744  119.58513
LATT -1
SFAC Li O  F  S  Fe 
Li     1  0.2996610000000 -0.1747920000000 -0.3111850000000 1.0  -0.02
Li     1 -0.3891540000000  0.1363930000000  0.3111850000000 1.0  -0.02
Li     1  0.0974120000000  0.4258770000000 -0.2326000000000 1.0  -0.01
Li     1  0.3300130000000 -0.3415230000000  0.2326000000000 1.0  -0.01
O      2 -0.0348620000000 -0.0813490000000 -0.4686720000000 1.0   0.07
O      2 -0.4135580000000 -0.0823750000000 -0.3936120000000 1.0   0.02
O      2  0.0238340000000  0.2130730000000 -0.3636690000000 1.0   0.05
O      2 -0.0074620000000 -0.0378350000000 -0.2897620000000 1.0   0.07
O      2  0.4338110000000  0.3873230000000  0.4686720000000 1.0   0.07
O      2 -0.0199460000000  0.3112370000000  0.3936120000000 1.0   0.02
O      2  0.3875030000000  0.5767420000000  0.3636690000000 1.0   0.05
O      2  0.2823000000000  0.2519270000000  0.2897620000000 1.0   0.07
O      2 -0.1596740000000 -0.5679910000000 -0.1537080000000 1.0   0.02
O      2 -0.1499740000000 -0.2697090000000 -0.1274510000000 1.0   0.11
O      2 -0.5926680000000 -0.5679890000000 -0.1621320000000 1.0   0.01
O      2 -0.3157890000000 -0.4901920000000 -0.2945730000000 1.0   0.10
O      2 -0.0059650000000 -0.4142830000000  0.1537080000000 1.0   0.02
O      2 -0.0225230000000 -0.1422580000000  0.1274510000000 1.0   0.11
O      2 -0.4305370000000 -0.4058580000000  0.1621320000000 1.0   0.01
O      2 -0.0212150000000 -0.1956190000000  0.2945730000000 1.0   0.10
F      3  0.2461020000000 -0.4131190000000 -0.3180980000000 1.0   0.07
F      3  0.5642000000000 -0.0950210000000  0.3180980000000 1.0   0.07
F      3 -0.2845980000000  0.1481270000000  0.1844530000000 1.0   0.14
F      3  0.5309500000000 -0.0363260000000 -0.1844530000000 1.0   0.14
S      4 -0.1161540000000  0.0021470000000 -0.3788270000000 1.0   0.02
S      4  0.2626730000000  0.3809740000000  0.3788270000000 1.0   0.02
S      4 -0.3125970000000 -0.4821510000000 -0.1825150000000 1.0   0.01
S      4 -0.1300810000000 -0.2996350000000  0.1825150000000 1.0   0.01
Fe     5 -0.6298340000000  0.4256630000000 -0.3949490000000 1.0   3.69
Fe     5 -0.2348840000000 -0.1793880000000  0.3949490000000 1.0   3.69
Fe     5 -0.1961240000000 -0.0885330000000 -0.1717650000000 1.0   3.65
Fe     5 -0.0243590000000  0.0832320000000  0.1717650000000 1.0   3.65
END
