TITL 4LiFeSO4F-200804-055141-9f03c0 -0.0467 415.429638 -1.51309681E+004 16.0000 16.2771 32 (Pna21) n - 1
REM
REM Run started: Tue, 04 Aug 2020 07:03:20 +0100 in /lustre/scratch/uccabz1/launch_tmp/launcher_2020-08-04-04-51-36-035418
REM CASTEP 20.1 from code version af48c487+ pr-geom-scf-spinfix Tue Jun 2 15:39:59 2020 +0100
REM Functional Perdew Burke Ernzerhof Relativity Koelling-Harmon Dispersion off
REM Cut-off 340.0000 eV Grid scale 1.7500 Gmax 16.5316 1/A FBSC none
REM MP grid 2 2 3 Offset 0.000 0.000 0.000 No. kpts 2 Spacing 0.07
REM Total runtime: 4448.74 s
REM Overall efficiency: 75.4 %
REM
REM 4LiFeSO4F.cell (79c870615ff1d88195b1fe3fe805288c)
REM
REM compiler GCC version 4.9.2
REM options -cpp -iprefix /lustre/shared/ucl/apps/gcc/4.9.2/bin/../lib/gcc/x86_64-unknown-linux-gnu/4.9.2/ -mtune=corei7 -march=x86-64 -g -Og
REM COMMAND_LINE
REM seed 1584219124 -1596022280 -990595980 -576673752 -1586633147 2053664911 899425277 28541352 2051613882 -632720540 1043192708 1033694112
REM
REM S 3|1.8|5|6|7|30:31:32(qc=5)
REM O 2|1.5|12|13|15|20:21(qc=5)
REM Li 1|1.3|8|9|10|10U:20(qc=5)
REM Fe 3|2.2|2.0|1.0|8|9|10|40:41:32(qc=5)
REM F 2|1.6|10|12|13|20:21(qc=5)
REM 
CELL 1.54180    8.41394    7.60701    6.49059   90.00000   90.00000   90.00000
LATT -1
SFAC Li O  F  S  Fe 
Li     1  0.0594710000000  0.4128270000000  0.1544420000000 1.0  -0.02
Li     1 -0.0594710000000 -0.4128270000000 -0.3455580000000 1.0  -0.02
Li     1 -0.4405290000000  0.0871730000000  0.1544420000000 1.0  -0.02
Li     1  0.4405290000000 -0.0871730000000 -0.3455580000000 1.0  -0.02
O      2 -0.1543060000000  0.4330140000000  0.0531560000000 1.0   0.02
O      2 -0.3954570000000  0.4267630000000 -0.1521150000000 1.0   0.07
O      2 -0.2737120000000  0.1435620000000 -0.0412610000000 1.0   0.01
O      2 -0.1411330000000  0.3246970000000 -0.3031960000000 1.0   0.05
O      2  0.1543060000000 -0.4330140000000  0.5531560000000 1.0   0.02
O      2  0.3954570000000 -0.4267630000000  0.3478850000000 1.0   0.07
O      2  0.2737120000000 -0.1435620000000  0.4587390000000 1.0   0.01
O      2  0.1411330000000 -0.3246970000000  0.1968040000000 1.0   0.05
O      2  0.3456940000000  0.0669860000000  0.0531560000000 1.0   0.02
O      2  0.1045430000000  0.0732370000000 -0.1521150000000 1.0   0.07
O      2  0.2262880000000  0.3564380000000 -0.0412610000000 1.0   0.01
O      2  0.3588670000000  0.1753030000000 -0.3031960000000 1.0   0.05
O      2 -0.3456940000000 -0.0669860000000  0.5531560000000 1.0   0.02
O      2 -0.1045430000000 -0.0732370000000  0.3478850000000 1.0   0.07
O      2 -0.2262880000000 -0.3564380000000  0.4587390000000 1.0   0.01
O      2 -0.3588670000000 -0.1753030000000  0.1968040000000 1.0   0.05
F      3 -0.0657870000000 -0.2272320000000 -0.1670310000000 1.0   0.12
F      3  0.0657870000000  0.2272320000000  0.3329690000000 1.0   0.12
F      3  0.4342130000000 -0.2727680000000 -0.1670310000000 1.0   0.12
F      3 -0.4342130000000  0.2727680000000  0.3329690000000 1.0   0.12
S      4 -0.2368260000000  0.3259330000000 -0.1034720000000 1.0   0.01
S      4  0.2368260000000 -0.3259330000000  0.3965280000000 1.0   0.01
S      4  0.2631740000000  0.1740670000000 -0.1034720000000 1.0   0.01
S      4 -0.2631740000000 -0.1740670000000  0.3965280000000 1.0   0.01
Fe     5  0.0158100000000 -0.1147300000000  0.0693080000000 1.0   3.74
Fe     5 -0.0158100000000  0.1147300000000 -0.4306920000000 1.0   3.74
Fe     5  0.5158100000000 -0.3852700000000  0.0693080000000 1.0   3.74
Fe     5 -0.5158100000000  0.3852700000000 -0.4306920000000 1.0   3.74
END
