TITL LiN2-230326-153807-9e9635 -0.4148 120.999531 -2.26718789E+003 0 0  9 (P1) n - 1
REM
REM Run started: Tue, 28 Mar 2023 00:38:14 +0000 in /home/bonan/nas/work/m3gnet/lin2/refine-run1-m3gnet
REM CASTEP 22.11| from code version b807d1bba+ Castep221_branch Wed Sep 14 11:18:35 2022 +0100
REM Functional Perdew Burke Ernzerhof Relativity Koelling-Harmon Dispersion off
REM Cut-off 800.0000 eV Grid scale 2.0000 Gmax 43.4715 1/A FBSC none
REM MP grid 5 7 3 Offset 0.000 0.000 0.000 No. kpts 53 Spacing 0.05
REM Total runtime: 3957.62 s
REM Overall efficiency: 86 %
REM
REM LiN2.cell (d2ef6ed2fcbb8712920a7d83bb41834a)
REM ## AIRSS Version 0.9.3 July 2022 commit v0.9.3-8-ga1e635fa32177e30cc
REM
REM
REM cmdline: crud.pl -mpinp 16 
REM
REM
REM N 2|1.1|14|16|18|20:21(qc=7)
REM Li 1|1.0|14|16|18|10U:20(qc=7)
REM 
CELL 1.54180    4.86382    3.21497    8.01631   87.02115   75.70560   85.31821
LATT -1
SFAC Li N  
Li     1  0.4045969523310  0.2501483310265 -0.1712366475082 1.0
Li     1 -0.2626106707651 -0.3911702618274  0.1110602408397 1.0
Li     1 -0.1669048727570  0.2485698866806 -0.4549688461580 1.0
N      2 -0.0296259837602  0.2251330932550  0.2779897312564 1.0
N      2  0.2114987095409  0.1836184430416  0.2023075791627 1.0
N      2 -0.1597407627281 -0.3087980879285 -0.1702052156462 1.0
N      2 -0.2605478749456 -0.2566887325834 -0.3021234785679 1.0
N      2  0.0597374007924  0.6584135353439 -0.1191973962102 1.0
N      2 -0.5464028164074  0.1407736904587  0.1263740427379 1.0
END
