TITL LiN2-230326-180810-1488c9 -0.0150 139.764027 -3.02286524E+003 0 0  12 (Cmmm) n - 1
REM
REM Run started: Tue, 28 Mar 2023 00:24:03 +0000 in /home/bonan/nas/work/m3gnet/lin2/refine-run1-m3gnet
REM CASTEP 22.11| from code version b807d1bba+ Castep221_branch Wed Sep 14 11:18:35 2022 +0100
REM Functional Perdew Burke Ernzerhof Relativity Koelling-Harmon Dispersion off
REM Cut-off 800.0000 eV Grid scale 2.0000 Gmax 43.4715 1/A FBSC none
REM MP grid 5 5 3 Offset 0.000 0.000 0.000 No. kpts 26 Spacing 0.05
REM Total runtime: 1195.81 s
REM Overall efficiency: 98 %
REM
REM LiN2.cell (d2ef6ed2fcbb8712920a7d83bb41834a)
REM ## AIRSS Version 0.9.3 July 2022 commit v0.9.3-8-ga1e635fa32177e30cc
REM
REM
REM cmdline: crud.pl -mpinp 16 
REM
REM
REM N 2|1.1|14|16|18|20:21(qc=7)
REM Li 1|1.0|14|16|18|10U:20(qc=7)
REM 
CELL 1.54180    4.22688    4.28634    7.71454   90.00000   90.00000   90.56323
LATT -1
SFAC Li N  
Li     1 -0.2544512371750  0.2552783308481  0.4075337652515 1.0
Li     1  0.2544512344895 -0.2552783322029  0.4075337652515 1.0
Li     1  0.2545402139909 -0.2553934886580 -0.0782218401323 1.0
Li     1 -0.2545402166764  0.2553934873032 -0.0782218401323 1.0
N      2 -0.2486503349328 -0.2431786120667 -0.3348233127518 1.0
N      2  0.2486503322473  0.2431786107119 -0.3348233127518 1.0
N      2 -0.3997739935926  0.4023775506276  0.1650765591332 1.0
N      2  0.3997739909071 -0.4023775519824  0.1650765591332 1.0
N      2 -0.2474478767668 -0.2478159518413 -0.4915668867438 1.0
N      2  0.2474478740813  0.2478159504865 -0.4915668867438 1.0
N      2  0.2475239911162  0.2478868339384 -0.1780652877098 1.0
N      2 -0.2475239938017 -0.2478868352932 -0.1780652877098 1.0
END
