TITL LiN2-230326-170219-f3310a 0.0105 227.845485 -4.53461456E+003 0 0  18 (P21/c) n - 1
REM
REM Run started: Mon, 27 Mar 2023 23:54:30 +0000 in /home/bonan/nas/work/m3gnet/lin2/refine-run1-m3gnet
REM CASTEP 22.11| from code version b807d1bba+ Castep221_branch Wed Sep 14 11:18:35 2022 +0100
REM Functional Perdew Burke Ernzerhof Relativity Koelling-Harmon Dispersion off
REM Cut-off 800.0000 eV Grid scale 2.0000 Gmax 43.4715 1/A FBSC none
REM MP grid 5 4 3 Offset 0.000 0.000 0.000 No. kpts 20 Spacing 0.05
REM Total runtime: 2452.7 s
REM Overall efficiency: 67 %
REM
REM LiN2.cell (d2ef6ed2fcbb8712920a7d83bb41834a)
REM ## AIRSS Version 0.9.3 July 2022 commit v0.9.3-8-ga1e635fa32177e30cc
REM
REM
REM cmdline: crud.pl -mpinp 16 
REM
REM
REM N 2|1.1|14|16|18|20:21(qc=7)
REM Li 1|1.0|14|16|18|10U:20(qc=7)
REM 
CELL 1.54180    5.16983    5.55871    8.25014   90.00000   89.99999  106.05213
LATT -1
SFAC Li N  
Li     1 -0.1438145549852  0.0080841263092 -0.3571555900287 1.0
Li     1  0.1438145338058 -0.5080840996815  0.1428444099713 1.0
Li     1  0.1438145338058 -0.0080840996815  0.3571555900287 1.0
Li     1 -0.1438145549852  0.5080841263092 -0.1428444099713 1.0
Li     1 -0.0000000105897  0.0000000133138 -0.0000000000000 1.0
Li     1 -0.0000000105897  0.5000000133139 -0.5000000000000 1.0
N      2 -0.5340070528414  0.2827152197649 -0.3955394715905 1.0
N      2  0.5340070316620  0.2172848068628  0.1044605284095 1.0
N      2  0.5340070316620 -0.2827151931372  0.3955394715905 1.0
N      2 -0.5340070528414 -0.2172847802351 -0.1044605284095 1.0
N      2  0.2329424618520 -0.3156994306249 -0.0776644994822 1.0
N      2 -0.2329424830314 -0.1843005427474 -0.5776644994822 1.0
N      2 -0.2329424830314  0.3156994572526  0.0776644994822 1.0
N      2  0.2329424618520  0.1843005693751  0.5776644994822 1.0
N      2  0.3012672871794 -0.3237153172336  0.3539044794092 1.0
N      2 -0.3012673083588 -0.1762846561387 -0.1460955205908 1.0
N      2 -0.3012673083588  0.3237153438613 -0.3539044794092 1.0
N      2  0.3012672871794  0.1762846827664  0.1460955205908 1.0
END
